


 14 16  0  0  0  0  0  0  0  0999 V2000
    7.7399    0.0000    0.0000 N   0  0  0  0  0  0  0  0  0  0  0  0
    6.5325    0.6966    0.0000 C   0  0  0  0  0  0  0  0  0  0  0  0
    6.5325    2.0974    0.0000 C   0  0  0  0  0  0  0  0  0  0  0  0
    5.3173    2.7940    0.0000 C   0  0  0  0  0  0  0  0  0  0  0  0
    4.1098    2.0974    0.0000 C   0  0  0  0  0  0  0  0  0  0  0  0
    4.1098    0.6966    0.0000 C   0  0  0  0  0  0  0  0  0  0  0  0
    5.3173    0.0000    0.0000 N   0  0  0  0  0  0  0  0  0  0  0  0
    2.7786    0.2631    0.0000 N   0  0  0  0  0  0  0  0  0  0  0  0
    1.9581    1.4009    0.0000 C   0  0  0  0  0  0  0  0  0  0  0  0
    0.5650    1.5402    0.0000 C   0  0  0  0  0  0  0  0  0  0  0  0
    0.0000    2.8172    0.0000 C   0  0  0  0  0  0  0  0  0  0  0  0
    0.8204    3.9473    0.0000 C   0  0  0  0  0  0  0  0  0  0  0  0
    2.2136    3.8080    0.0000 C   0  0  0  0  0  0  0  0  0  0  0  0
    2.7786    2.5309    0.0000 C   0  0  0  0  0  0  0  0  0  0  0  0
  1  2  1  0  0  0  0
  2  3  1  0  0  0  0
  2  7  2  0  0  0  0
  3  4  2  0  0  0  0
  4  5  1  0  0  0  0
  5  6  2  0  0  0  0
  5 14  1  0  0  0  0
  6  7  1  0  0  0  0
  6  8  1  0  0  0  0
  8  9  1  0  0  0  0
  9 10  2  0  0  0  0
  9 14  1  0  0  0  0
 10 11  1  0  0  0  0
 11 12  2  0  0  0  0
 12 13  1  0  0  0  0
 13 14  2  0  0  0  0
M  END
>  <DSSTox_RID>
20001

>  <DSSTox_CID>
1

>  <DSSTox_Generic_SID>
20001

>  <DSSTox_FileID>
1_CPDBAS_v5d

>  <STRUCTURE_Formula>
C11H9N3

>  <STRUCTURE_MolecularWeight>
183.2122

>  <STRUCTURE_ChemicalType>
defined organic

>  <STRUCTURE_TestedForm_DefinedOrganic>
parent

>  <STRUCTURE_Shown>
tested chemical

>  <TestSubstance_ChemicalName>
A-alpha-C

>  <TestSubstance_CASRN>
26148-68-5

>  <TestSubstance_Description>
single chemical compound

>  <ChemicalNote>
blank

>  <STRUCTURE_ChemicalName_IUPAC>
9H-pyrido[2,3-b]indol-2-amine

>  <STRUCTURE_SMILES>
NC1C=CC2=C(N=1)NC3=CC=CC=C23

>  <STRUCTURE_Parent_SMILES>
NC1C=CC2=C(N=1)NC3=CC=CC=C23

>  <STRUCTURE_InChI>
InChI=1/C11H9N3/c12-10-6-5-8-7-3-1-2-4-9(7)13-11(8)14-10/h1-6H,(H3,12,13,14)/f/h13H,12H2

>  <STRUCTURE_InChIKey>
FJTNLJLPLJDTRM-DXMPFREMCP

>  <StudyType>
Carcinogenicity

>  <Endpoint>
TD50; Tumor Target Sites

>  <Species>
mouse

>  <ActivityOutcome_CPDBAS_Mutagenicity>
active

>  <TD50_Rat_mg>
blank

>  <TD50_Rat_mmol>
blank

>  <ActivityScore_CPDBAS_Rat>
blank

>  <TD50_Rat_Note>
blank

>  <TargetSites_Rat_Male>
blank

>  <TargetSites_Rat_Female>
blank

>  <TargetSites_Rat_BothSexes>
blank

>  <ActivityOutcome_CPDBAS_Rat>
blank

>  <TD50_Mouse_mg>
49.8

>  <TD50_Mouse_mmol>
0.272

>  <ActivityScore_CPDBAS_Mouse>
35

>  <TD50_Mouse_Note>
TD50 is harmonic mean of more than one positive test

>  <TargetSites_Mouse_Male>
liver; vascular system

>  <TargetSites_Mouse_Female>
liver; vascular system

>  <TargetSites_Mouse_BothSexes>
blank

>  <ActivityOutcome_CPDBAS_Mouse>
active

>  <TD50_Hamster_mg>
blank

>  <TD50_Hamster_mmol>
blank

>  <ActivityScore_CPDBAS_Hamster>
blank

>  <TD50_Hamster_Note>
blank

>  <TargetSites_Hamster_Male>
blank

>  <TargetSites_Hamster_Female>
blank

>  <TargetSites_Hamster_BothSexes>
blank

>  <ActivityOutcome_CPDBAS_Hamster>
blank

>  <TD50_Dog_mg>
blank

>  <TargetSites_Dog>
blank

>  <TD50_Rhesus_mg>
blank

>  <TargetSites_Rhesus>
blank

>  <TD50_Cynomolgus_mg>
blank

>  <TargetSites_Cynomolgus>
blank

>  <TD50_Dog_Primates_Note>
blank

>  <ActivityOutcome_CPDBAS_Dog_Primates>
blank

>  <ActivityOutcome_CPDBAS_SingleCellCall>
active

>  <ActivityOutcome_CPDBAS_MultiCellCall>
active

>  <ActivityOutcome_CPDBAS_MultiCellCall_Details>
multisite active; multisex active

>  <Note_CPDBAS>
blank

>  <NTP_TechnicalReport>
blank

>  <ChemicalPage_URL>
http://potency.berkeley.edu/chempages/A-alpha-C.html

$$$$



  3  2  0  0  0  0  0  0  0  0999 V2000
    2.3030   -0.6656    0.0000 C   0  0  0  0  0  0  0  0  0  0  0  0
    1.1515    0.0000    0.0000 C   0  0  0  0  0  0  0  0  0  0  0  0
    0.0000   -0.6656    0.0000 O   0  0  0  0  0  0  0  0  0  0  0  0
  1  2  1  0  0  0  0
  2  3  2  0  0  0  0
M  END
>  <DSSTox_RID>
20002

>  <DSSTox_CID>
2

>  <DSSTox_Generic_SID>
39224

>  <DSSTox_FileID>
3_CPDBAS_v5d

>  <STRUCTURE_Formula>
C2H4O

>  <STRUCTURE_MolecularWeight>
44.0526

>  <STRUCTURE_ChemicalType>
defined organic

>  <STRUCTURE_TestedForm_DefinedOrganic>
parent

>  <STRUCTURE_Shown>
tested chemical

>  <TestSubstance_ChemicalName>
Acetaldehyde

>  <TestSubstance_CASRN>
75-07-0

>  <TestSubstance_Description>
single chemical compound

>  <STRUCTURE_ChemicalName_IUPAC>
acetaldehyde

>  <STRUCTURE_SMILES>
CC=O

>  <STRUCTURE_Parent_SMILES>
CC=O

>  <STRUCTURE_InChI>
InChI=1/C2H4O/c1-2-3/h2H,1H3

>  <STRUCTURE_InChIKey>
IKHGUXGNUITLKF-UHFFFAOYAB

>  <StudyType>
Carcinogenicity

>  <Endpoint>
TD50; Tumor Target Sites

>  <Species>
rat; hamster

>  <ActivityOutcome_CPDBAS_Mutagenicity>
inactive

>  <TD50_Rat_mg>
153

>  <TD50_Rat_mmol>
3.47

>  <ActivityScore_CPDBAS_Rat>
20

>  <TD50_Rat_Note>
TD50 is harmonic mean of more than one positive test

>  <TargetSites_Rat_Male>
nasal cavity

>  <TargetSites_Rat_Female>
nasal cavity

>  <ActivityOutcome_CPDBAS_Rat>
active

>  <TD50_Hamster_mg>
565

>  <TD50_Hamster_mmol>
12.8

>  <ActivityScore_CPDBAS_Hamster>
1

>  <TD50_Hamster_Note>
TD50 is harmonic mean of more than one positive test

>  <TargetSites_Hamster_Male>
nasal cavity; oral cavity

>  <TargetSites_Hamster_Female>
oral cavity

>  <ActivityOutcome_CPDBAS_Hamster>
active

>  <ActivityOutcome_CPDBAS_SingleCellCall>
active

>  <ActivityOutcome_CPDBAS_MultiCellCall>
active

>  <ActivityOutcome_CPDBAS_MultiCellCall_Details>
multisite active; multisex active; multispecies active

>  <ChemicalPage_URL>
http://potency.berkeley.edu/chempages/ACETALDEHYDE.html

$$$$



  7  6  0  0  0  0  0  0  0  0999 V2000
    5.7637   -1.9942    0.0000 C   0  0  0  0  0  0  0  0  0  0  0  0
    4.6110   -1.3314    0.0000 C   0  0  0  0  0  0  0  0  0  0  0  0
    3.4582   -1.9942    0.0000 N   0  0  0  0  0  0  0  0  0  0  0  0
    2.3055   -1.3314    0.0000 N   0  0  0  0  0  0  0  0  0  0  0  0
    2.3055    0.0000    0.0000 C   0  0  0  0  0  0  0  0  0  0  0  0
    1.1527   -1.9942    0.0000 C   0  0  0  0  0  0  0  0  0  0  0  0
    0.0000   -1.3314    0.0000 O   0  0  0  0  0  0  0  0  0  0  0  0
  1  2  1  0  0  0  0
  2  3  2  0  0  0  0
  3  4  1  0  0  0  0
  4  5  1  0  0  0  0
  4  6  1  0  0  0  0
  6  7  2  0  0  0  0
M  END
>  <DSSTox_RID>
20003

>  <DSSTox_CID>
3

>  <DSSTox_Generic_SID>
39225

>  <DSSTox_FileID>
4_CPDBAS_v5d

>  <STRUCTURE_Formula>
C4H8N2O

>  <STRUCTURE_MolecularWeight>
100.12

>  <STRUCTURE_ChemicalType>
defined organic

>  <STRUCTURE_TestedForm_DefinedOrganic>
parent

>  <STRUCTURE_Shown>
tested chemical

>  <TestSubstance_ChemicalName>
Acetaldehyde methylformylhydrazone

>  <TestSubstance_CASRN>
16568-02-8

>  <TestSubstance_Description>
single chemical compound

>  <STRUCTURE_ChemicalName_IUPAC>
N'-[(1E)-ethylidene]-N-methylformic hydrazide

>  <STRUCTURE_SMILES>
CC=NN(C)C=O

>  <STRUCTURE_Parent_SMILES>
CC=NN(C)C=O

>  <STRUCTURE_InChI>
InChI=1/C4H8N2O/c1-3-5-6(2)4-7/h3-4H,1-2H3/b5-3+

>  <STRUCTURE_InChIKey>
IMAGWKUTFZRWSB-HWKANZROBR

>  <StudyType>
Carcinogenicity

>  <Endpoint>
TD50; Tumor Target Sites

>  <Species>
mouse

>  <ActivityOutcome_CPDBAS_Mutagenicity>
inactive

>  <TD50_Mouse_mg>
2.51

>  <TD50_Mouse_mmol>
0.0251

>  <ActivityScore_CPDBAS_Mouse>
46

>  <TD50_Mouse_Note>
TD50 is harmonic mean of more than one positive test

>  <TargetSites_Mouse_Male>
lung; preputial gland

>  <TargetSites_Mouse_Female>
clitoral gland; lung; stomach

>  <ActivityOutcome_CPDBAS_Mouse>
active

>  <ActivityOutcome_CPDBAS_SingleCellCall>
active

>  <ActivityOutcome_CPDBAS_MultiCellCall>
active

>  <ActivityOutcome_CPDBAS_MultiCellCall_Details>
multisite active; multisex active

>  <ChemicalPage_URL>
http://potency.berkeley.edu/chempages/ACETALDEHYDE%20METHYLFORMYLHYDRAZONE.html

$$$$



  4  3  0  0  0  0  0  0  0  0999 V2000
    0.0000    0.0000    0.0000 C   0  0  0  0  0  0  0  0  0  0  0  0
    1.1513   -0.6638    0.0000 C   0  0  0  0  0  0  0  0  0  0  0  0
    2.3061    0.0000    0.0000 N   0  0  0  0  0  0  0  0  0  0  0  0
    3.4575   -0.6638    0.0000 O   0  0  0  0  0  0  0  0  0  0  0  0
  1  2  1  0  0  0  0
  2  3  2  0  0  0  0
  3  4  1  0  0  0  0
M  END
>  <DSSTox_RID>
20004

>  <DSSTox_CID>
4

>  <DSSTox_Generic_SID>
20004

>  <DSSTox_FileID>
5_CPDBAS_v5d

>  <STRUCTURE_Formula>
C2H5NO

>  <STRUCTURE_MolecularWeight>
59.0672

>  <STRUCTURE_ChemicalType>
defined organic

>  <STRUCTURE_TestedForm_DefinedOrganic>
parent

>  <STRUCTURE_Shown>
tested chemical

>  <TestSubstance_ChemicalName>
Acetaldoxime

>  <TestSubstance_CASRN>
107-29-9

>  <TestSubstance_Description>
single chemical compound

>  <STRUCTURE_ChemicalName_IUPAC>
(1E)-acetaldehyde oxime

>  <STRUCTURE_SMILES>
CC=NO

>  <STRUCTURE_Parent_SMILES>
CC=NO

>  <STRUCTURE_InChI>
InChI=1/C2H5NO/c1-2-3-4/h2,4H,1H3/b3-2+

>  <STRUCTURE_InChIKey>
FZENGILVLUJGJX-NSCUHMNNBP

>  <StudyType>
Carcinogenicity

>  <Endpoint>
TD50; Tumor Target Sites

>  <Species>
rat

>  <ActivityOutcome_CPDBAS_Mutagenicity>
inactive

>  <ActivityScore_CPDBAS_Rat>
0

>  <TD50_Rat_Note>
no positive results

>  <TargetSites_Rat_Male>
no positive results

>  <ActivityOutcome_CPDBAS_Rat>
inactive

>  <ActivityOutcome_CPDBAS_SingleCellCall>
inactive

>  <ChemicalPage_URL>
http://potency.berkeley.edu/chempages/ACETALDOXIME.html

$$$$



  4  3  0  0  0  0  0  0  0  0999 V2000
    1.9950    0.0000    0.0000 C   0  0  0  0  0  0  0  0  0  0  0  0
    1.3292   -1.1518    0.0000 C   0  0  0  0  0  0  0  0  0  0  0  0
    1.9950   -2.3037    0.0000 O   0  0  0  0  0  0  0  0  0  0  0  0
    0.0000   -1.1518    0.0000 N   0  0  0  0  0  0  0  0  0  0  0  0
  1  2  1  0  0  0  0
  2  3  2  0  0  0  0
  2  4  1  0  0  0  0
M  END
>  <DSSTox_RID>
20005

>  <DSSTox_CID>
5

>  <DSSTox_Generic_SID>
20005

>  <DSSTox_FileID>
6_CPDBAS_v5d

>  <STRUCTURE_Formula>
C2H5NO

>  <STRUCTURE_MolecularWeight>
59.0672

>  <STRUCTURE_ChemicalType>
defined organic

>  <STRUCTURE_TestedForm_DefinedOrganic>
parent

>  <STRUCTURE_Shown>
tested chemical

>  <TestSubstance_ChemicalName>
Acetamide

>  <TestSubstance_CASRN>
60-35-5

>  <TestSubstance_Description>
single chemical compound

>  <STRUCTURE_ChemicalName_IUPAC>
acetamide

>  <STRUCTURE_SMILES>
CC(=O)N

>  <STRUCTURE_Parent_SMILES>
CC(=O)N

>  <STRUCTURE_InChI>
InChI=1/C2H5NO/c1-2(3)4/h1H3,(H2,3,4)/f/h3H2

>  <STRUCTURE_InChIKey>
DLFVBJFMPXGRIB-ZZOWFUDICC

>  <StudyType>
Carcinogenicity

>  <Endpoint>
TD50; Tumor Target Sites

>  <Species>
rat; mouse

>  <ActivityOutcome_CPDBAS_Mutagenicity>
inactive

>  <TD50_Rat_mg>
180

>  <TD50_Rat_mmol>
3.05

>  <ActivityScore_CPDBAS_Rat>
21

>  <TD50_Rat_Note>
TD50 is harmonic mean of more than one positive test

>  <TargetSites_Rat_Male>
liver

>  <TargetSites_Rat_Female>
liver

>  <ActivityOutcome_CPDBAS_Rat>
active

>  <TD50_Mouse_mg>
3010

>  <TD50_Mouse_mmol>
51

>  <ActivityScore_CPDBAS_Mouse>
9

>  <TargetSites_Mouse_Male>
hematopoietic system

>  <TargetSites_Mouse_Female>
no positive results

>  <ActivityOutcome_CPDBAS_Mouse>
active

>  <ActivityOutcome_CPDBAS_SingleCellCall>
active

>  <ActivityOutcome_CPDBAS_MultiCellCall>
active

>  <ActivityOutcome_CPDBAS_MultiCellCall_Details>
multisite active; multisex active; multispecies active

>  <ChemicalPage_URL>
http://potency.berkeley.edu/chempages/ACETAMIDE.html

$$$$



 11 11  0  0  0  0  0  0  0  0999 V2000
    3.8512   -1.8702    0.0000 C   0  0  0  0  0  0  0  0  0  0  0  0
    2.9346   -2.8163    0.0000 C   0  0  0  0  0  0  0  0  0  0  0  0
    3.5407   -0.5987    0.0000 C   0  0  0  0  0  0  0  0  0  0  0  0
    5.1522   -2.2102    0.0000 N   0  0  0  0  0  0  0  0  0  0  0  0
    1.6410   -2.4689    0.0000 C   0  0  0  0  0  0  0  0  0  0  0  0
    2.2397   -0.2587    0.0000 C   0  0  0  0  0  0  0  0  0  0  0  0
    6.0983   -1.2862    0.0000 C   0  0  0  0  0  0  0  0  0  0  0  0
    1.2936   -1.2049    0.0000 C   0  0  0  0  0  0  0  0  0  0  0  0
    5.7583    0.0000    0.0000 C   0  0  0  0  0  0  0  0  0  0  0  0
    7.3919   -1.6114    0.0000 O   0  0  0  0  0  0  0  0  0  0  0  0
    0.0000   -0.8575    0.0000 O   0  0  0  0  0  0  0  0  0  0  0  0
  1  2  2  0  0  0  0
  1  3  1  0  0  0  0
  1  4  1  0  0  0  0
  2  5  1  0  0  0  0
  3  6  2  0  0  0  0
  4  7  1  0  0  0  0
  5  8  2  0  0  0  0
  6  8  1  0  0  0  0
  7  9  1  0  0  0  0
  7 10  2  0  0  0  0
  8 11  1  0  0  0  0
M  END
>  <DSSTox_RID>
20006

>  <DSSTox_CID>
6

>  <DSSTox_Generic_SID>
20006

>  <DSSTox_FileID>
7_CPDBAS_v5d

>  <STRUCTURE_Formula>
C8H9NO2

>  <STRUCTURE_MolecularWeight>
151.1626

>  <STRUCTURE_ChemicalType>
defined organic

>  <STRUCTURE_TestedForm_DefinedOrganic>
parent

>  <STRUCTURE_Shown>
tested chemical

>  <TestSubstance_ChemicalName>
Acetaminophen

>  <TestSubstance_CASRN>
103-90-2

>  <TestSubstance_Description>
single chemical compound

>  <STRUCTURE_ChemicalName_IUPAC>
N-(4-hydroxyphenyl)acetamide

>  <STRUCTURE_SMILES>
C1(=CC=C(C=C1)O)NC(C)=O

>  <STRUCTURE_Parent_SMILES>
C1(=CC=C(C=C1)O)NC(C)=O

>  <STRUCTURE_InChI>
InChI=1/C8H9NO2/c1-6(10)9-7-2-4-8(11)5-3-7/h2-5,11H,1H3,(H,9,10)/f/h9H

>  <STRUCTURE_InChIKey>
RZVAJINKPMORJF-BGGKNDAXCW

>  <StudyType>
Carcinogenicity

>  <Endpoint>
TD50; Tumor Target Sites

>  <Species>
rat; mouse

>  <ActivityOutcome_CPDBAS_Mutagenicity>
inactive

>  <TD50_Rat_mg>
495

>  <TD50_Rat_mmol>
3.27

>  <ActivityScore_CPDBAS_Rat>
20

>  <TD50_Rat_Note>
TD50 is harmonic mean of more than one positive test

>  <TargetSites_Rat_Male>
liver; urinary bladder

>  <TargetSites_Rat_Female>
liver; urinary bladder

>  <ActivityOutcome_CPDBAS_Rat>
active

>  <TD50_Mouse_mg>
1620

>  <TD50_Mouse_mmol>
10.7

>  <ActivityScore_CPDBAS_Mouse>
17

>  <TD50_Mouse_Note>
TD50 is harmonic mean of more than one positive test

>  <TargetSites_Mouse_Male>
liver

>  <TargetSites_Mouse_Female>
liver

>  <ActivityOutcome_CPDBAS_Mouse>
active

>  <ActivityOutcome_CPDBAS_SingleCellCall>
active

>  <ActivityOutcome_CPDBAS_MultiCellCall>
active

>  <ActivityOutcome_CPDBAS_MultiCellCall_Details>
multisite active; multisex active; multispecies active

>  <NTP_TechnicalReport>
TR 394; final call in CPDB differs due to additional data

>  <ChemicalPage_URL>
http://potency.berkeley.edu/chempages/ACETAMINOPHEN.html

$$$$



 22 23  0  0  0  0  0  0  0  0999 V2000
    5.1434   -4.1211    0.0000 O   0  0  0  0  0  0  0  0  0  0  0  0
    3.9933   -3.4609    0.0000 S   0  0  0  0  0  0  0  0  0  0  0  0
    2.8432   -2.7900    0.0000 O   0  0  0  0  0  0  0  0  0  0  0  0
    3.3224   -4.6110    0.0000 C   0  0  0  0  0  0  0  0  0  0  0  0
    1.9913   -4.6110    0.0000 C   0  0  0  0  0  0  0  0  0  0  0  0
    1.3311   -5.7610    0.0000 C   0  0  0  0  0  0  0  0  0  0  0  0
    1.9913   -6.9111    0.0000 C   0  0  0  0  0  0  0  0  0  0  0  0
    3.3224   -6.9111    0.0000 C   0  0  0  0  0  0  0  0  0  0  0  0
    3.9933   -5.7610    0.0000 C   0  0  0  0  0  0  0  0  0  0  0  0
    1.3311   -8.0718    0.0000 C   0  0  0  0  0  0  0  0  0  0  0  0
    1.9913   -9.2219    0.0000 O   0  0  0  0  0  0  0  0  0  0  0  0
    0.0000   -8.0718    0.0000 C   0  0  0  0  0  0  0  0  0  0  0  0
    4.6642   -2.3002    0.0000 N   0  0  0  0  0  0  0  0  0  0  0  0
    5.9953   -2.3002    0.0000 C   0  0  0  0  0  0  0  0  0  0  0  0
    6.6555   -3.4609    0.0000 O   0  0  0  0  0  0  0  0  0  0  0  0
    6.6555   -1.1501    0.0000 N   0  0  0  0  0  0  0  0  0  0  0  0
    7.9866   -1.1501    0.0000 C   0  0  0  0  0  0  0  0  0  0  0  0
    8.6575    0.0000    0.0000 C   0  0  0  0  0  0  0  0  0  0  0  0
    9.9780    0.0000    0.0000 C   0  0  0  0  0  0  0  0  0  0  0  0
   10.6489   -1.1501    0.0000 C   0  0  0  0  0  0  0  0  0  0  0  0
    9.9780   -2.3002    0.0000 C   0  0  0  0  0  0  0  0  0  0  0  0
    8.6575   -2.3002    0.0000 C   0  0  0  0  0  0  0  0  0  0  0  0
  1  2  2  0  0  0  0
  2  3  2  0  0  0  0
  2  4  1  0  0  0  0
  2 13  1  0  0  0  0
  4  5  2  0  0  0  0
  4  9  1  0  0  0  0
  5  6  1  0  0  0  0
  6  7  2  0  0  0  0
  7  8  1  0  0  0  0
  7 10  1  0  0  0  0
  8  9  2  0  0  0  0
 10 11  2  0  0  0  0
 10 12  1  0  0  0  0
 13 14  1  0  0  0  0
 14 15  2  0  0  0  0
 14 16  1  0  0  0  0
 16 17  1  0  0  0  0
 17 18  1  0  0  0  0
 17 22  1  0  0  0  0
 18 19  1  0  0  0  0
 19 20  1  0  0  0  0
 20 21  1  0  0  0  0
 21 22  1  0  0  0  0
M  END
>  <DSSTox_RID>
20007

>  <DSSTox_CID>
7

>  <DSSTox_Generic_SID>
20007

>  <DSSTox_FileID>
8_CPDBAS_v5d

>  <STRUCTURE_Formula>
C15H20N2O4S

>  <STRUCTURE_MolecularWeight>
324.3953

>  <STRUCTURE_ChemicalType>
defined organic

>  <STRUCTURE_TestedForm_DefinedOrganic>
parent

>  <STRUCTURE_Shown>
tested chemical

>  <TestSubstance_ChemicalName>
Acetohexamide

>  <TestSubstance_CASRN>
968-81-0

>  <TestSubstance_Description>
single chemical compound

>  <STRUCTURE_ChemicalName_IUPAC>
4-acetyl-N-[(cyclohexylamino)carbonyl]benzenesulfonamide

>  <STRUCTURE_SMILES>
O=S(=O)(C1=CC=C(C=C1)C(=O)C)NC(=O)NC2CCCCC2

>  <STRUCTURE_Parent_SMILES>
O=S(=O)(C1=CC=C(C=C1)C(=O)C)NC(=O)NC2CCCCC2

>  <STRUCTURE_InChI>
InChI=1/C15H20N2O4S/c1-11(18)12-7-9-14(10-8-12)22(20,21)17-15(19)16-13-5-3-2-4-6-13/h7-10,13H,2-6H2,1H3,(H2,16,17,19)/f/h16-17H

>  <STRUCTURE_InChIKey>
VGZSUPCWNCWDAN-XQMQJMAZCC

>  <StudyType>
Carcinogenicity

>  <Endpoint>
TD50; Tumor Target Sites

>  <Species>
rat; mouse

>  <ActivityOutcome_CPDBAS_Mutagenicity>
inactive

>  <ActivityScore_CPDBAS_Rat>
0

>  <TD50_Rat_Note>
no positive results

>  <TargetSites_Rat_Male>
no positive results

>  <TargetSites_Rat_Female>
no positive results

>  <ActivityOutcome_CPDBAS_Rat>
inactive

>  <ActivityScore_CPDBAS_Mouse>
0

>  <TD50_Mouse_Note>
no positive results

>  <TargetSites_Mouse_Male>
no positive results

>  <TargetSites_Mouse_Female>
no positive results

>  <ActivityOutcome_CPDBAS_Mouse>
inactive

>  <ActivityOutcome_CPDBAS_SingleCellCall>
inactive

>  <ActivityOutcome_CPDBAS_MultiCellCall>
inactive

>  <ActivityOutcome_CPDBAS_MultiCellCall_Details>
multisex inactive; multispecies inactive

>  <NTP_TechnicalReport>
TR 050

>  <ChemicalPage_URL>
http://potency.berkeley.edu/chempages/ACETOHEXAMIDE.html

$$$$



 18 19  0  0  0  0  0  0  0  0999 V2000
   11.1272   -2.0879    0.0000 C   0  0  0  0  0  0  0  0  0  0  0  0
   11.1272   -0.7492    0.0000 C   0  0  0  0  0  0  0  0  0  0  0  0
   12.2816   -2.7511    0.0000 C   0  0  0  0  0  0  0  0  0  0  0  0
    9.9727   -2.7511    0.0000 N   0  0  0  0  0  0  0  0  0  0  0  0
    8.8182   -2.0879    0.0000 N   0  0  0  0  0  0  0  0  0  0  0  0
    7.6760   -2.7511    0.0000 C   0  0  0  0  0  0  0  0  0  0  0  0
    7.5286   -4.0652    0.0000 N   0  0  0  0  0  0  0  0  0  0  0  0
    6.2268   -4.3477    0.0000 C   0  0  0  0  0  0  0  0  0  0  0  0
    5.5636   -3.1932    0.0000 C   0  0  0  0  0  0  0  0  0  0  0  0
    6.4601   -2.2107    0.0000 S   0  0  0  0  0  0  0  0  0  0  0  0
    4.2372   -3.0581    0.0000 C   0  0  0  0  0  0  0  0  0  0  0  0
    3.3529   -4.0407    0.0000 C   0  0  0  0  0  0  0  0  0  0  0  0
    2.1370   -3.5003    0.0000 C   0  0  0  0  0  0  0  0  0  0  0  0
    2.2721   -2.1861    0.0000 C   0  0  0  0  0  0  0  0  0  0  0  0
    3.5740   -1.9037    0.0000 O   0  0  0  0  0  0  0  0  0  0  0  0
    1.2896   -1.2896    0.0000 N   0  3  0  0  0  0  0  0  0  0  0  0
    0.0000   -1.6335    0.0000 O   0  0  0  0  0  0  0  0  0  0  0  0
    1.6335    0.0000    0.0000 O   0  5  0  0  0  0  0  0  0  0  0  0
  1  2  1  0  0  0  0
  1  3  1  0  0  0  0
  1  4  2  0  0  0  0
  4  5  1  0  0  0  0
  5  6  1  0  0  0  0
  6  7  2  0  0  0  0
  6 10  1  0  0  0  0
  7  8  1  0  0  0  0
  8  9  2  0  0  0  0
  9 10  1  0  0  0  0
  9 11  1  0  0  0  0
 11 12  2  0  0  0  0
 11 15  1  0  0  0  0
 12 13  1  0  0  0  0
 13 14  2  0  0  0  0
 14 15  1  0  0  0  0
 14 16  1  0  0  0  0
 16 17  2  0  0  0  0
 16 18  1  0  0  0  0
M  END
>  <DSSTox_RID>
20008

>  <DSSTox_CID>
8

>  <DSSTox_Generic_SID>
20008

>  <DSSTox_FileID>
9_CPDBAS_v5d

>  <STRUCTURE_Formula>
C10H10N4O3S

>  <STRUCTURE_MolecularWeight>
266.274

>  <STRUCTURE_ChemicalType>
defined organic

>  <STRUCTURE_TestedForm_DefinedOrganic>
parent

>  <STRUCTURE_Shown>
tested chemical

>  <TestSubstance_ChemicalName>
Acetone[4-(5-nitro-2-furyl)-2-thiazolyl] hydrazone

>  <TestSubstance_CASRN>
18523-69-8

>  <TestSubstance_Description>
single chemical compound

>  <STRUCTURE_ChemicalName_IUPAC>
propan-2-one [5-(5-nitrofuran-2-yl)-1,3-thiazol-2-yl]hydrazone

>  <STRUCTURE_SMILES>
C(/C)(C)=N\NC1=NC=C(S1)C2=CC=C(O2)[N+](=O)[O-]

>  <STRUCTURE_Parent_SMILES>
C(/C)(C)=N\NC1=NC=C(S1)C2=CC=C(O2)[N+](=O)[O-]

>  <STRUCTURE_InChI>
InChI=1/C10H10N4O3S/c1-6(2)12-13-10-11-5-8(18-10)7-3-4-9(17-7)14(15)16/h3-5H,1-2H3,(H,11,13)/f/h13H

>  <STRUCTURE_InChIKey>
CUWVNOSSZYUJAE-NDKGDYFDCK

>  <StudyType>
Carcinogenicity

>  <Endpoint>
TD50; Tumor Target Sites

>  <Species>
rat

>  <TD50_Rat_mg>
6.05

>  <TD50_Rat_mmol>
0.0227

>  <ActivityScore_CPDBAS_Rat>
43

>  <TargetSites_Rat_Female>
stomach

>  <ActivityOutcome_CPDBAS_Rat>
active

>  <ActivityOutcome_CPDBAS_SingleCellCall>
active

>  <ChemicalPage_URL>
http://potency.berkeley.edu/chempages/ACETONE[4-(5-NITRO-2-FURYL)-2-THIAZOLYL]HYDRAZONE.html

$$$$



  3  2  0  0  0  0  0  0  0  0999 V2000
    2.6600    0.0000    0.0000 C   0  0  0  0  0  0  0  0  0  0  0  0
    1.3300    0.0000    0.0000 C   0  0  0  0  0  0  0  0  0  0  0  0
    0.0000    0.0000    0.0000 N   0  0  0  0  0  0  0  0  0  0  0  0
  1  2  1  0  0  0  0
  2  3  3  0  0  0  0
M  END
>  <DSSTox_RID>
20009

>  <DSSTox_CID>
9

>  <DSSTox_Generic_SID>
20009

>  <DSSTox_FileID>
10_CPDBAS_v5d

>  <STRUCTURE_Formula>
C2H3N

>  <STRUCTURE_MolecularWeight>
41.0519

>  <STRUCTURE_ChemicalType>
defined organic

>  <STRUCTURE_TestedForm_DefinedOrganic>
parent

>  <STRUCTURE_Shown>
tested chemical

>  <TestSubstance_ChemicalName>
Acetonitrile

>  <TestSubstance_CASRN>
75-05-8

>  <TestSubstance_Description>
single chemical compound

>  <STRUCTURE_ChemicalName_IUPAC>
acetonitrile

>  <STRUCTURE_SMILES>
CC#N

>  <STRUCTURE_Parent_SMILES>
CC#N

>  <STRUCTURE_InChI>
InChI=1/C2H3N/c1-2-3/h1H3

>  <STRUCTURE_InChIKey>
WEVYAHXRMPXWCK-UHFFFAOYAJ

>  <StudyType>
Carcinogenicity

>  <Endpoint>
TD50; Tumor Target Sites

>  <Species>
rat; mouse

>  <ActivityOutcome_CPDBAS_Mutagenicity>
inactive

>  <ActivityScore_CPDBAS_Rat>
0

>  <TD50_Rat_Note>
no positive results

>  <TargetSites_Rat_Male>
no positive results

>  <TargetSites_Rat_Female>
no positive results

>  <ActivityOutcome_CPDBAS_Rat>
inactive

>  <ActivityScore_CPDBAS_Mouse>
0

>  <TD50_Mouse_Note>
no positive results

>  <TargetSites_Mouse_Male>
no positive results

>  <TargetSites_Mouse_Female>
no positive results

>  <ActivityOutcome_CPDBAS_Mouse>
inactive

>  <ActivityOutcome_CPDBAS_SingleCellCall>
inactive

>  <ActivityOutcome_CPDBAS_MultiCellCall>
inactive

>  <ActivityOutcome_CPDBAS_MultiCellCall_Details>
multisex inactive; multispecies inactive

>  <NTP_TechnicalReport>
TR 447

>  <ChemicalPage_URL>
http://potency.berkeley.edu/chempages/ACETONITRILE.html

$$$$



  5  4  0  0  0  0  0  0  0  0999 V2000
    3.4567   -1.9945    0.0000 C   0  0  0  0  0  0  0  0  0  0  0  0
    2.3056   -1.3308    0.0000 C   0  0  0  0  0  0  0  0  0  0  0  0
    1.1511   -1.9945    0.0000 N   0  0  0  0  0  0  0  0  0  0  0  0
    0.0000   -1.3308    0.0000 O   0  0  0  0  0  0  0  0  0  0  0  0
    2.3056    0.0000    0.0000 C   0  0  0  0  0  0  0  0  0  0  0  0
  1  2  1  0  0  0  0
  2  3  2  0  0  0  0
  2  5  1  0  0  0  0
  3  4  1  0  0  0  0
M  END
>  <DSSTox_RID>
20010

>  <DSSTox_CID>
10

>  <DSSTox_Generic_SID>
20010

>  <DSSTox_FileID>
11_CPDBAS_v5d

>  <STRUCTURE_Formula>
C3H7NO

>  <STRUCTURE_MolecularWeight>
73.0938

>  <STRUCTURE_ChemicalType>
defined organic

>  <STRUCTURE_TestedForm_DefinedOrganic>
parent

>  <STRUCTURE_Shown>
tested chemical

>  <TestSubstance_ChemicalName>
Acetoxime

>  <TestSubstance_CASRN>
127-06-0

>  <TestSubstance_Description>
single chemical compound

>  <STRUCTURE_ChemicalName_IUPAC>
propan-2-one oxime

>  <STRUCTURE_SMILES>
CC(=NO)C

>  <STRUCTURE_Parent_SMILES>
CC(=NO)C

>  <STRUCTURE_InChI>
InChI=1/C3H7NO/c1-3(2)4-5/h5H,1-2H3

>  <STRUCTURE_InChIKey>
PXAJQJMDEXJWFB-UHFFFAOYAK

>  <StudyType>
Carcinogenicity

>  <Endpoint>
TD50; Tumor Target Sites

>  <Species>
rat

>  <TD50_Rat_mg>
12.1

>  <TD50_Rat_mmol>
0.166

>  <ActivityScore_CPDBAS_Rat>
34

>  <TargetSites_Rat_Male>
liver

>  <TargetSites_Rat_Female>
no positive results

>  <ActivityOutcome_CPDBAS_Rat>
active

>  <ActivityOutcome_CPDBAS_SingleCellCall>
active

>  <ChemicalPage_URL>
http://potency.berkeley.edu/chempages/ACETOXIME.html

$$$$



 16 17  0  0  0  0  0  0  0  0999 V2000
    1.1551   -0.6716    0.0000 O   0  0  0  0  0  0  0  0  0  0  0  0
    6.9126   -2.6594    0.0000 C   0  0  0  0  0  0  0  0  0  0  0  0
    6.9126   -3.9935    0.0000 C   0  0  0  0  0  0  0  0  0  0  0  0
    8.1751   -2.2475    0.0000 O   0  0  0  0  0  0  0  0  0  0  0  0
    8.1751   -4.4054    0.0000 O   0  0  0  0  0  0  0  0  0  0  0  0
    8.9541   -3.3309    0.0000 C   0  0  0  0  0  0  0  0  0  0  0  0
    5.7575   -1.9968    0.0000 C   0  0  0  0  0  0  0  0  0  0  0  0
    5.7575   -4.6561    0.0000 C   0  0  0  0  0  0  0  0  0  0  0  0
    3.4563   -0.6716    0.0000 C   0  0  0  0  0  0  0  0  0  0  0  0
    2.3012    0.0000    0.0000 C   0  0  0  0  0  0  0  0  0  0  0  0
    4.6024   -2.6594    0.0000 C   0  0  0  0  0  0  0  0  0  0  0  0
    4.6024   -3.9935    0.0000 C   0  0  0  0  0  0  0  0  0  0  0  0
    3.4563   -1.9968    0.0000 C   0  0  3  0  0  0  0  0  0  0  0  0
    2.3012   -2.6594    0.0000 O   0  0  0  0  0  0  0  0  0  0  0  0
    1.1551   -1.9968    0.0000 C   0  0  0  0  0  0  0  0  0  0  0  0
    0.0000   -2.6594    0.0000 C   0  0  0  0  0  0  0  0  0  0  0  0
  1 15  2  0  0  0  0
  2  3  2  0  0  0  0
  2  4  1  0  0  0  0
  2  7  1  0  0  0  0
  3  5  1  0  0  0  0
  3  8  1  0  0  0  0
  4  6  1  0  0  0  0
  5  6  1  0  0  0  0
  7 11  2  0  0  0  0
  8 12  2  0  0  0  0
  9 13  1  0  0  0  0
  9 10  2  0  0  0  0
 11 12  1  0  0  0  0
 11 13  1  0  0  0  0
 13 14  1  0  0  0  0
 14 15  1  0  0  0  0
 15 16  1  0  0  0  0
M  END
>  <DSSTox_RID>
20011

>  <DSSTox_CID>
11

>  <DSSTox_Generic_SID>
39226

>  <DSSTox_FileID>
12_CPDBAS_v5d

>  <STRUCTURE_Formula>
C12H12O4

>  <STRUCTURE_MolecularWeight>
220.2213

>  <STRUCTURE_ChemicalType>
defined organic

>  <STRUCTURE_TestedForm_DefinedOrganic>
parent

>  <STRUCTURE_Shown>
tested chemical

>  <TestSubstance_ChemicalName>
1'-Acetoxysafrole

>  <TestSubstance_CASRN>
34627-78-6

>  <TestSubstance_Description>
single chemical compound

>  <STRUCTURE_ChemicalName_IUPAC>
1-(1,3-benzodioxol-5-yl)prop-2-en-1-yl acetate

>  <STRUCTURE_SMILES>
O=C(C)OC(C2=CC1=C(C=C2)OCO1)C=C

>  <STRUCTURE_Parent_SMILES>
O=C(C)OC(C2=CC1=C(C=C2)OCO1)C=C

>  <STRUCTURE_InChI>
InChI=1/C12H12O4/c1-3-10(16-8(2)13)9-4-5-11-12(6-9)15-7-14-11/h3-6,10H,1,7H2,2H3

>  <STRUCTURE_InChIKey>
TXUCQVJZBXYDKH-UHFFFAOYAY

>  <StudyType>
Carcinogenicity

>  <Endpoint>
TD50; Tumor Target Sites

>  <Species>
rat; mouse

>  <ActivityOutcome_CPDBAS_Mutagenicity>
active

>  <TD50_Rat_mg>
25

>  <TD50_Rat_mmol>
0.114

>  <ActivityScore_CPDBAS_Rat>
35

>  <TD50_Rat_Note>
TD50 is harmonic mean of more than one positive test

>  <TargetSites_Rat_Male>
stomach

>  <ActivityOutcome_CPDBAS_Rat>
active

>  <ActivityScore_CPDBAS_Mouse>
0

>  <TD50_Mouse_Note>
no positive results

>  <TargetSites_Mouse_Male>
no positive results

>  <ActivityOutcome_CPDBAS_Mouse>
inactive

>  <ActivityOutcome_CPDBAS_SingleCellCall>
active

>  <ChemicalPage_URL>
http://potency.berkeley.edu/chempages/1'-ACETOXYSAFROLE.html

$$$$



 13 13  0  0  0  0  0  0  0  0999 V2000
    2.6636   -2.3090    0.0000 N   0  0  0  0  0  0  0  0  0  0  0  0
    1.9977   -1.1588    0.0000 N   0  0  0  0  0  0  0  0  0  0  0  0
    0.6659   -1.1588    0.0000 C   0  0  0  0  0  0  0  0  0  0  0  0
    0.0000   -2.3090    0.0000 C   0  0  0  0  0  0  0  0  0  0  0  0
    0.0000    0.0000    0.0000 O   0  0  0  0  0  0  0  0  0  0  0  0
    3.9953   -2.3090    0.0000 C   0  0  0  0  0  0  0  0  0  0  0  0
    4.6526   -1.1588    0.0000 C   0  0  0  0  0  0  0  0  0  0  0  0
    5.9844   -1.1588    0.0000 C   0  0  0  0  0  0  0  0  0  0  0  0
    6.6503   -2.3090    0.0000 C   0  0  0  0  0  0  0  0  0  0  0  0
    5.9844   -3.4592    0.0000 C   0  0  0  0  0  0  0  0  0  0  0  0
    4.6526   -3.4592    0.0000 C   0  0  0  0  0  0  0  0  0  0  0  0
    7.9820   -2.3090    0.0000 C   0  0  0  0  0  0  0  0  0  0  0  0
    8.6479   -3.4592    0.0000 O   0  0  0  0  0  0  0  0  0  0  0  0
  1  2  1  0  0  0  0
  1  6  1  0  0  0  0
  2  3  1  0  0  0  0
  3  4  1  0  0  0  0
  3  5  2  0  0  0  0
  6  7  2  0  0  0  0
  6 11  1  0  0  0  0
  7  8  1  0  0  0  0
  8  9  2  0  0  0  0
  9 10  1  0  0  0  0
  9 12  1  0  0  0  0
 10 11  2  0  0  0  0
 12 13  1  0  0  0  0
M  END
>  <DSSTox_RID>
20012

>  <DSSTox_CID>
12

>  <DSSTox_Generic_SID>
20012

>  <DSSTox_FileID>
13_CPDBAS_v5d

>  <STRUCTURE_Formula>
C9H12N2O2

>  <STRUCTURE_MolecularWeight>
180.206

>  <STRUCTURE_ChemicalType>
defined organic

>  <STRUCTURE_TestedForm_DefinedOrganic>
parent

>  <STRUCTURE_Shown>
tested chemical

>  <TestSubstance_ChemicalName>
N'-Acetyl-4-(hydroxymethyl) phenylhydrazine

>  <TestSubstance_CASRN>
65734-38-5

>  <TestSubstance_Description>
single chemical compound

>  <STRUCTURE_ChemicalName_IUPAC>
N'-[4-(hydroxymethyl)phenyl]acetohydrazide

>  <STRUCTURE_SMILES>
N(NC(C)=O)C1=CC=C(C=C1)CO

>  <STRUCTURE_Parent_SMILES>
N(NC(C)=O)C1=CC=C(C=C1)CO

>  <STRUCTURE_InChI>
InChI=1/C9H12N2O2/c1-7(13)10-11-9-4-2-8(6-12)3-5-9/h2-5,11-12H,6H2,1H3,(H,10,13)/f/h10H

>  <STRUCTURE_InChIKey>
UFFJUAYKLIGSJF-KZFATGLACR

>  <StudyType>
Carcinogenicity

>  <Endpoint>
TD50; Tumor Target Sites

>  <Species>
mouse

>  <TD50_Mouse_mg>
241

>  <TD50_Mouse_mmol>
1.34

>  <ActivityScore_CPDBAS_Mouse>
27

>  <TD50_Mouse_Note>
TD50 is harmonic mean of more than one positive test

>  <TargetSites_Mouse_Male>
lung; vascular system

>  <TargetSites_Mouse_Female>
lung; vascular system

>  <ActivityOutcome_CPDBAS_Mouse>
active

>  <ActivityOutcome_CPDBAS_SingleCellCall>
active

>  <ActivityOutcome_CPDBAS_MultiCellCall>
active

>  <ActivityOutcome_CPDBAS_MultiCellCall_Details>
multisite active; multisex active

>  <ChemicalPage_URL>
http://potency.berkeley.edu/chempages/N'-ACETYL-4-(HYDROXYMETHYL)PHENYLHYDRAZINE.html

$$$$



 13 13  0  0  0  0  0  0  0  0999 V2000
    3.4560   -1.9979    0.0000 N   0  0  0  0  0  0  0  0  0  0  0  0
    2.3040   -1.3292    0.0000 N   0  0  0  0  0  0  0  0  0  0  0  0
    1.1520   -1.9979    0.0000 C   0  0  0  0  0  0  0  0  0  0  0  0
    0.0000   -1.3292    0.0000 C   0  0  0  0  0  0  0  0  0  0  0  0
    1.1520   -3.3271    0.0000 O   0  0  0  0  0  0  0  0  0  0  0  0
    4.6000   -1.3292    0.0000 C   0  0  0  0  0  0  0  0  0  0  0  0
    5.7520   -1.9979    0.0000 C   0  0  0  0  0  0  0  0  0  0  0  0
    6.9040   -1.3292    0.0000 C   0  0  0  0  0  0  0  0  0  0  0  0
    8.0560   -1.9979    0.0000 C   0  0  0  0  0  0  0  0  0  0  0  0
    8.0560   -3.3271    0.0000 N   0  0  0  0  0  0  0  0  0  0  0  0
    6.9040   -3.9877    0.0000 C   0  0  0  0  0  0  0  0  0  0  0  0
    5.7520   -3.3271    0.0000 C   0  0  0  0  0  0  0  0  0  0  0  0
    4.6000    0.0000    0.0000 O   0  0  0  0  0  0  0  0  0  0  0  0
  1  2  1  0  0  0  0
  1  6  1  0  0  0  0
  2  3  1  0  0  0  0
  3  4  1  0  0  0  0
  3  5  2  0  0  0  0
  6  7  1  0  0  0  0
  6 13  2  0  0  0  0
  7  8  2  0  0  0  0
  7 12  1  0  0  0  0
  8  9  1  0  0  0  0
  9 10  2  0  0  0  0
 10 11  1  0  0  0  0
 11 12  2  0  0  0  0
M  END
>  <DSSTox_RID>
20013

>  <DSSTox_CID>
13

>  <DSSTox_Generic_SID>
20013

>  <DSSTox_FileID>
14_CPDBAS_v5d

>  <STRUCTURE_Formula>
C8H9N3O2

>  <STRUCTURE_MolecularWeight>
179.178

>  <STRUCTURE_ChemicalType>
defined organic

>  <STRUCTURE_TestedForm_DefinedOrganic>
parent

>  <STRUCTURE_Shown>
tested chemical

>  <TestSubstance_ChemicalName>
1-Acetyl-2-isonicotinoylhydrazine

>  <TestSubstance_CASRN>
1078-38-2

>  <TestSubstance_Description>
single chemical compound

>  <STRUCTURE_ChemicalName_IUPAC>
N'-acetylpyridine-4-carbohydrazide

>  <STRUCTURE_SMILES>
N(NC(C)=O)C(C1=CC=NC=C1)=O

>  <STRUCTURE_Parent_SMILES>
N(NC(C)=O)C(C1=CC=NC=C1)=O

>  <STRUCTURE_InChI>
InChI=1/C8H9N3O2/c1-6(12)10-11-8(13)7-2-4-9-5-3-7/h2-5H,1H3,(H,10,12)(H,11,13)/f/h10-11H

>  <STRUCTURE_InChIKey>
CVBGNAKQQUWBQV-PZWAIHAUCF

>  <StudyType>
Carcinogenicity

>  <Endpoint>
TD50; Tumor Target Sites

>  <Species>
mouse

>  <TD50_Mouse_mg>
330

>  <TD50_Mouse_mmol>
1.84

>  <ActivityScore_CPDBAS_Mouse>
25

>  <TD50_Mouse_Note>
TD50 is harmonic mean of more than one positive test

>  <TargetSites_Mouse_Male>
lung

>  <TargetSites_Mouse_Female>
lung

>  <ActivityOutcome_CPDBAS_Mouse>
active

>  <ActivityOutcome_CPDBAS_SingleCellCall>
active

>  <ActivityOutcome_CPDBAS_MultiCellCall>
active

>  <ActivityOutcome_CPDBAS_MultiCellCall_Details>
multisex active

>  <ChemicalPage_URL>
http://potency.berkeley.edu/chempages/1-ACETYL-2-ISONICOTINOYLHYDRAZINE.html

$$$$



 12 12  0  0  0  0  0  0  0  0999 V2000
    1.9922   -4.6067    0.0000 O   0  0  0  0  0  0  0  0  0  0  0  0
    2.6563   -3.4580    0.0000 C   0  0  0  0  0  0  0  0  0  0  0  0
    1.9922   -2.3033    0.0000 C   0  0  3  0  0  0  0  0  0  0  0  0
    2.6563   -1.1547    0.0000 C   0  0  0  0  0  0  0  0  0  0  0  0
    1.9922    0.0000    0.0000 O   0  0  0  0  0  0  0  0  0  0  0  0
    3.9905   -1.1547    0.0000 O   0  0  0  0  0  0  0  0  0  0  0  0
    4.6546   -2.3033    0.0000 C   0  0  0  0  0  0  0  0  0  0  0  0
    3.9905   -3.4580    0.0000 C   0  0  0  0  0  0  0  0  0  0  0  0
    5.9827   -2.3033    0.0000 C   0  0  0  0  0  0  0  0  0  0  0  0
    0.6641   -2.3033    0.0000 C   0  0  0  0  0  0  0  0  0  0  0  0
    0.0000   -3.4580    0.0000 O   0  0  0  0  0  0  0  0  0  0  0  0
    0.0000   -1.1547    0.0000 C   0  0  0  0  0  0  0  0  0  0  0  0
  1  2  2  0  0  0  0
  2  3  1  0  0  0  0
  2  8  1  0  0  0  0
  3  4  1  0  0  0  0
  3 10  1  0  0  0  0
  4  5  2  0  0  0  0
  4  6  1  0  0  0  0
  6  7  1  0  0  0  0
  7  8  2  0  0  0  0
  7  9  1  0  0  0  0
 10 11  2  0  0  0  0
 10 12  1  0  0  0  0
M  END
>  <DSSTox_RID>
20014

>  <DSSTox_CID>
14

>  <DSSTox_Generic_SID>
20014

>  <DSSTox_FileID>
15_CPDBAS_v5d

>  <STRUCTURE_Formula>
C8H8O4

>  <STRUCTURE_MolecularWeight>
168.1488

>  <STRUCTURE_ChemicalType>
defined organic

>  <STRUCTURE_TestedForm_DefinedOrganic>
parent

>  <STRUCTURE_Shown>
tested chemical

>  <TestSubstance_ChemicalName>
3-Acetyl-6-methyl-2,4-pyrandione

>  <TestSubstance_CASRN>
520-45-6

>  <TestSubstance_Description>
single chemical compound

>  <ChemicalNote>
tautomers

>  <STRUCTURE_ChemicalName_IUPAC>
3-acetyl-6-methyl-2H-pyran-2,4(3H)-dione

>  <STRUCTURE_SMILES>
O=C1C(C(=O)OC(=C1)C)C(=O)C

>  <STRUCTURE_Parent_SMILES>
O=C1C(C(=O)OC(=C1)C)C(=O)C

>  <STRUCTURE_InChI>
InChI=1/C8H8O4/c1-4-3-6(10)7(5(2)9)8(11)12-4/h3,7H,1-2H3

>  <STRUCTURE_InChIKey>
PGRHXDWITVMQBC-UHFFFAOYAH

>  <StudyType>
Carcinogenicity

>  <Endpoint>
TD50; Tumor Target Sites

>  <Species>
mouse

>  <ActivityScore_CPDBAS_Mouse>
0

>  <TD50_Mouse_Note>
no positive results

>  <TargetSites_Mouse_Male>
no positive results

>  <TargetSites_Mouse_Female>
no positive results

>  <ActivityOutcome_CPDBAS_Mouse>
inactive

>  <ActivityOutcome_CPDBAS_SingleCellCall>
inactive

>  <ActivityOutcome_CPDBAS_MultiCellCall>
inactive

>  <ActivityOutcome_CPDBAS_MultiCellCall_Details>
multisex inactive

>  <ChemicalPage_URL>
http://potency.berkeley.edu/chempages/3-ACETYL-6-METHYL-2,4-PYRANDIONE.html

$$$$



 11 11  0  0  0  0  0  0  0  0999 V2000
    3.9907   -2.3079    0.0000 C   0  0  0  0  0  0  0  0  0  0  0  0
    2.6605   -2.3079    0.0000 N   0  0  0  0  0  0  0  0  0  0  0  0
    1.9953   -1.1573    0.0000 N   0  0  0  0  0  0  0  0  0  0  0  0
    0.6651   -1.1573    0.0000 C   0  0  0  0  0  0  0  0  0  0  0  0
    0.0000   -2.3079    0.0000 C   0  0  0  0  0  0  0  0  0  0  0  0
    0.0000    0.0000    0.0000 O   0  0  0  0  0  0  0  0  0  0  0  0
    4.6558   -1.1573    0.0000 C   0  0  0  0  0  0  0  0  0  0  0  0
    5.9860   -1.1573    0.0000 C   0  0  0  0  0  0  0  0  0  0  0  0
    6.6511   -2.3079    0.0000 C   0  0  0  0  0  0  0  0  0  0  0  0
    5.9860   -3.4586    0.0000 C   0  0  0  0  0  0  0  0  0  0  0  0
    4.6558   -3.4586    0.0000 C   0  0  0  0  0  0  0  0  0  0  0  0
  1  2  1  0  0  0  0
  1  7  2  0  0  0  0
  1 11  1  0  0  0  0
  2  3  1  0  0  0  0
  3  4  1  0  0  0  0
  4  5  1  0  0  0  0
  4  6  2  0  0  0  0
  7  8  1  0  0  0  0
  8  9  2  0  0  0  0
  9 10  1  0  0  0  0
 10 11  2  0  0  0  0
M  END
>  <DSSTox_RID>
20015

>  <DSSTox_CID>
15

>  <DSSTox_Generic_SID>
20015

>  <DSSTox_FileID>
16_CPDBAS_v5d

>  <STRUCTURE_Formula>
C8H10N2O

>  <STRUCTURE_MolecularWeight>
150.1778

>  <STRUCTURE_ChemicalType>
defined organic

>  <STRUCTURE_TestedForm_DefinedOrganic>
parent

>  <STRUCTURE_Shown>
tested chemical

>  <TestSubstance_ChemicalName>
1-Acetyl-2-phenylhydrazine

>  <TestSubstance_CASRN>
114-83-0

>  <TestSubstance_Description>
single chemical compound

>  <STRUCTURE_ChemicalName_IUPAC>
N'-phenylacetohydrazide

>  <STRUCTURE_SMILES>
C1(NNC(C)=O)=CC=CC=C1

>  <STRUCTURE_Parent_SMILES>
C1(NNC(C)=O)=CC=CC=C1

>  <STRUCTURE_InChI>
InChI=1/C8H10N2O/c1-7(11)9-10-8-5-3-2-4-6-8/h2-6,10H,1H3,(H,9,11)/f/h9H

>  <STRUCTURE_InChIKey>
UICBCXONCUFSOI-BGGKNDAXCP

>  <StudyType>
Carcinogenicity

>  <Endpoint>
TD50; Tumor Target Sites

>  <Species>
mouse

>  <ActivityOutcome_CPDBAS_Mutagenicity>
active

>  <TD50_Mouse_mg>
51.2

>  <TD50_Mouse_mmol>
0.341

>  <ActivityScore_CPDBAS_Mouse>
34

>  <TD50_Mouse_Note>
TD50 is harmonic mean of more than one positive test

>  <TargetSites_Mouse_Male>
vascular system

>  <TargetSites_Mouse_Female>
vascular system

>  <ActivityOutcome_CPDBAS_Mouse>
active

>  <ActivityOutcome_CPDBAS_SingleCellCall>
active

>  <ActivityOutcome_CPDBAS_MultiCellCall>
active

>  <ActivityOutcome_CPDBAS_MultiCellCall_Details>
multisex active

>  <ChemicalPage_URL>
http://potency.berkeley.edu/chempages/1-ACETYL-2-PHENYLHYDRAZINE.html

$$$$



 16 17  0  0  0  0  0  0  0  0999 V2000
    1.9954    0.0000    0.0000 C   0  0  0  0  0  0  0  0  0  0  0  0
    1.3269   -1.1473    0.0000 C   0  0  0  0  0  0  0  0  0  0  0  0
    0.0000   -1.1473    0.0000 O   0  0  0  0  0  0  0  0  0  0  0  0
    1.9954   -2.3046    0.0000 N   0  0  0  0  0  0  0  0  0  0  0  0
    3.3223   -2.3046    0.0000 C   0  0  0  0  0  0  0  0  0  0  0  0
    3.9907   -1.1473    0.0000 C   0  0  0  0  0  0  0  0  0  0  0  0
    5.3176   -1.1473    0.0000 C   0  0  0  0  0  0  0  0  0  0  0  0
    5.9861   -2.3046    0.0000 C   0  0  0  0  0  0  0  0  0  0  0  0
    5.3176   -3.4520    0.0000 C   0  0  0  0  0  0  0  0  0  0  0  0
    3.9907   -3.4520    0.0000 C   0  0  0  0  0  0  0  0  0  0  0  0
    7.3130   -2.3046    0.0000 C   0  0  0  0  0  0  0  0  0  0  0  0
    7.9814   -1.1473    0.0000 C   0  0  0  0  0  0  0  0  0  0  0  0
    9.3083   -1.1473    0.0000 C   0  0  0  0  0  0  0  0  0  0  0  0
    9.9768   -2.3046    0.0000 C   0  0  0  0  0  0  0  0  0  0  0  0
    9.3083   -3.4520    0.0000 C   0  0  0  0  0  0  0  0  0  0  0  0
    7.9814   -3.4520    0.0000 C   0  0  0  0  0  0  0  0  0  0  0  0
  1  2  1  0  0  0  0
  2  3  2  0  0  0  0
  2  4  1  0  0  0  0
  4  5  1  0  0  0  0
  5  6  2  0  0  0  0
  5 10  1  0  0  0  0
  6  7  1  0  0  0  0
  7  8  2  0  0  0  0
  8  9  1  0  0  0  0
  8 11  1  0  0  0  0
  9 10  2  0  0  0  0
 11 12  2  0  0  0  0
 11 16  1  0  0  0  0
 12 13  1  0  0  0  0
 13 14  2  0  0  0  0
 14 15  1  0  0  0  0
 15 16  2  0  0  0  0
M  END
>  <DSSTox_RID>
20016

>  <DSSTox_CID>
16

>  <DSSTox_Generic_SID>
39243

>  <DSSTox_FileID>
17_CPDBAS_v5d

>  <STRUCTURE_Formula>
C14H13NO

>  <STRUCTURE_MolecularWeight>
211.2628

>  <STRUCTURE_ChemicalType>
defined organic

>  <STRUCTURE_TestedForm_DefinedOrganic>
parent

>  <STRUCTURE_Shown>
tested chemical

>  <TestSubstance_ChemicalName>
4-Acetylaminobiphenyl

>  <TestSubstance_CASRN>
4075-79-0

>  <TestSubstance_Description>
single chemical compound

>  <STRUCTURE_ChemicalName_IUPAC>
N-biphenyl-4-ylacetamide

>  <STRUCTURE_SMILES>
CC(=O)NC1=CC=C(C=C1)C2=CC=CC=C2

>  <STRUCTURE_Parent_SMILES>
CC(=O)NC1=CC=C(C=C1)C2=CC=CC=C2

>  <STRUCTURE_InChI>
InChI=1/C14H13NO/c1-11(16)15-14-9-7-13(8-10-14)12-5-3-2-4-6-12/h2-10H,1H3,(H,15,16)/f/h15H

>  <STRUCTURE_InChIKey>
SVLDILRDQOVJED-YAQRNVERCM

>  <StudyType>
Carcinogenicity

>  <Endpoint>
TD50; Tumor Target Sites

>  <Species>
rat

>  <TD50_Rat_mg>
1.18

>  <TD50_Rat_mmol>
0.00559

>  <ActivityScore_CPDBAS_Rat>
49

>  <TargetSites_Rat_Female>
mammary gland

>  <ActivityOutcome_CPDBAS_Rat>
active

>  <ActivityOutcome_CPDBAS_SingleCellCall>
active

>  <ChemicalPage_URL>
http://potency.berkeley.edu/chempages/4-ACETYLAMINOBIPHENYL.html

$$$$



 17 19  0  0  0  0  0  0  0  0999 V2000
    8.3884   -2.2984    0.0000 C   0  0  0  0  0  0  0  0  0  0  0  0
    7.7257   -3.4560    0.0000 C   0  0  0  0  0  0  0  0  0  0  0  0
    8.3884   -4.6052    0.0000 O   0  0  0  0  0  0  0  0  0  0  0  0
    6.3920   -3.4560    0.0000 N   0  0  0  0  0  0  0  0  0  0  0  0
    5.7293   -2.2984    0.0000 C   0  0  0  0  0  0  0  0  0  0  0  0
    4.3955   -2.2984    0.0000 C   0  0  0  0  0  0  0  0  0  0  0  0
    3.5064   -3.2883    0.0000 C   0  0  0  0  0  0  0  0  0  0  0  0
    2.2900   -2.7514    0.0000 C   0  0  0  0  0  0  0  0  0  0  0  0
    1.0737   -3.2883    0.0000 C   0  0  0  0  0  0  0  0  0  0  0  0
    0.0000   -2.5081    0.0000 C   0  0  0  0  0  0  0  0  0  0  0  0
    0.1426   -1.1828    0.0000 C   0  0  0  0  0  0  0  0  0  0  0  0
    1.3505   -0.6459    0.0000 C   0  0  0  0  0  0  0  0  0  0  0  0
    2.4326   -1.4260    0.0000 C   0  0  0  0  0  0  0  0  0  0  0  0
    3.7328   -1.1492    0.0000 C   0  0  0  0  0  0  0  0  0  0  0  0
    4.3955    0.0000    0.0000 C   0  0  0  0  0  0  0  0  0  0  0  0
    5.7293    0.0000    0.0000 C   0  0  0  0  0  0  0  0  0  0  0  0
    6.3920   -1.1492    0.0000 C   0  0  0  0  0  0  0  0  0  0  0  0
  1  2  1  0  0  0  0
  2  3  2  0  0  0  0
  2  4  1  0  0  0  0
  4  5  1  0  0  0  0
  5  6  2  0  0  0  0
  5 17  1  0  0  0  0
  6  7  1  0  0  0  0
  6 14  1  0  0  0  0
  7  8  1  0  0  0  0
  8  9  2  0  0  0  0
  8 13  1  0  0  0  0
  9 10  1  0  0  0  0
 10 11  2  0  0  0  0
 11 12  1  0  0  0  0
 12 13  2  0  0  0  0
 13 14  1  0  0  0  0
 14 15  2  0  0  0  0
 15 16  1  0  0  0  0
 16 17  2  0  0  0  0
M  END
>  <DSSTox_RID>
20017

>  <DSSTox_CID>
17

>  <DSSTox_Generic_SID>
20017

>  <DSSTox_FileID>
18_CPDBAS_v5d

>  <STRUCTURE_Formula>
C15H13NO

>  <STRUCTURE_MolecularWeight>
223.2738

>  <STRUCTURE_ChemicalType>
defined organic

>  <STRUCTURE_TestedForm_DefinedOrganic>
parent

>  <STRUCTURE_Shown>
tested chemical

>  <TestSubstance_ChemicalName>
1-Acetylaminofluorene

>  <TestSubstance_CASRN>
28314-03-6

>  <TestSubstance_Description>
single chemical compound

>  <STRUCTURE_ChemicalName_IUPAC>
N-9H-fluoren-1-ylacetamide

>  <STRUCTURE_SMILES>
CC(=O)NC1=C2CC3=CC=CC=C3C2=CC=C1

>  <STRUCTURE_Parent_SMILES>
CC(=O)NC1=C2CC3=CC=CC=C3C2=CC=C1

>  <STRUCTURE_InChI>
InChI=1/C15H13NO/c1-10(17)16-15-8-4-7-13-12-6-3-2-5-11(12)9-14(13)15/h2-8H,9H2,1H3,(H,16,17)/f/h16H

>  <STRUCTURE_InChIKey>
POECHIXSIXBYKI-WYUMXYHSCQ

>  <StudyType>
Carcinogenicity

>  <Endpoint>
TD50; Tumor Target Sites

>  <Species>
rat

>  <ActivityScore_CPDBAS_Rat>
0

>  <TD50_Rat_Note>
no positive results

>  <TargetSites_Rat_Female>
no positive results

>  <ActivityOutcome_CPDBAS_Rat>
inactive

>  <ActivityOutcome_CPDBAS_SingleCellCall>
inactive

>  <ChemicalPage_URL>
http://potency.berkeley.edu/chempages/1-ACETYLAMINOFLUORENE.html

$$$$



 17 19  0  0  0  0  0  0  0  0999 V2000
    5.7640   -1.7698    0.0000 C   0  0  0  0  0  0  0  0  0  0  0  0
    7.0213   -1.3540    0.0000 C   0  0  0  0  0  0  0  0  0  0  0  0
    7.8046   -2.4275    0.0000 C   0  0  0  0  0  0  0  0  0  0  0  0
    9.1296   -2.2921    0.0000 C   0  0  0  0  0  0  0  0  0  0  0  0
    9.6712   -1.0735    0.0000 C   0  0  0  0  0  0  0  0  0  0  0  0
    8.8878    0.0000    0.0000 C   0  0  0  0  0  0  0  0  0  0  0  0
    7.5629   -0.1451    0.0000 C   0  0  0  0  0  0  0  0  0  0  0  0
    7.0213   -3.5106    0.0000 C   0  0  0  0  0  0  0  0  0  0  0  0
    5.7640   -3.0948    0.0000 C   0  0  0  0  0  0  0  0  0  0  0  0
    4.6035   -3.7621    0.0000 C   0  0  0  0  0  0  0  0  0  0  0  0
    3.4526   -3.0948    0.0000 C   0  0  0  0  0  0  0  0  0  0  0  0
    3.4526   -1.7698    0.0000 C   0  0  0  0  0  0  0  0  0  0  0  0
    4.6035   -1.1025    0.0000 C   0  0  0  0  0  0  0  0  0  0  0  0
    2.3017   -3.7621    0.0000 N   0  0  0  0  0  0  0  0  0  0  0  0
    1.1509   -3.0948    0.0000 C   0  0  0  0  0  0  0  0  0  0  0  0
    0.0000   -3.7621    0.0000 C   0  0  0  0  0  0  0  0  0  0  0  0
    1.1509   -1.7698    0.0000 O   0  0  0  0  0  0  0  0  0  0  0  0
  1  2  1  0  0  0  0
  1  9  1  0  0  0  0
  1 13  2  0  0  0  0
  2  3  2  0  0  0  0
  2  7  1  0  0  0  0
  3  4  1  0  0  0  0
  3  8  1  0  0  0  0
  4  5  2  0  0  0  0
  5  6  1  0  0  0  0
  6  7  2  0  0  0  0
  8  9  1  0  0  0  0
  9 10  2  0  0  0  0
 10 11  1  0  0  0  0
 11 12  2  0  0  0  0
 11 14  1  0  0  0  0
 12 13  1  0  0  0  0
 14 15  1  0  0  0  0
 15 16  1  0  0  0  0
 15 17  2  0  0  0  0
M  END
>  <DSSTox_RID>
20018

>  <DSSTox_CID>
18

>  <DSSTox_Generic_SID>
39227

>  <DSSTox_FileID>
19_CPDBAS_v5d

>  <STRUCTURE_Formula>
C15H13NO

>  <STRUCTURE_MolecularWeight>
223.2698

>  <STRUCTURE_ChemicalType>
defined organic

>  <STRUCTURE_TestedForm_DefinedOrganic>
parent

>  <STRUCTURE_Shown>
tested chemical

>  <TestSubstance_ChemicalName>
2-Acetylaminofluorene

>  <TestSubstance_CASRN>
53-96-3

>  <TestSubstance_Description>
single chemical compound

>  <STRUCTURE_ChemicalName_IUPAC>
N-9H-fluoren-2-ylacetamide

>  <STRUCTURE_SMILES>
C12C3=C(C=CC=C3)CC1=CC(=CC=2)NC(C)=O

>  <STRUCTURE_Parent_SMILES>
C12C3=C(C=CC=C3)CC1=CC(=CC=2)NC(C)=O

>  <STRUCTURE_InChI>
InChI=1/C15H13NO/c1-10(17)16-13-6-7-15-12(9-13)8-11-4-2-3-5-14(11)15/h2-7,9H,8H2,1H3,(H,16,17)/f/h16H

>  <STRUCTURE_InChIKey>
CZIHNRWJTSTCEX-WYUMXYHSCF

>  <StudyType>
Carcinogenicity

>  <Endpoint>
TD50; Tumor Target Sites

>  <Species>
rat; mouse; hamster; rhesus

>  <ActivityOutcome_CPDBAS_Mutagenicity>
active

>  <TD50_Rat_mg>
1.22

>  <TD50_Rat_mmol>
0.00546

>  <ActivityScore_CPDBAS_Rat>
49

>  <TD50_Rat_Note>
TD50 is harmonic mean of more than one positive test

>  <TargetSites_Rat_Male>
liver; mammary gland; skin

>  <TargetSites_Rat_Female>
liver; mammary gland; skin

>  <ActivityOutcome_CPDBAS_Rat>
active

>  <TD50_Mouse_mg>
7.59

>  <TD50_Mouse_mmol>
0.034

>  <ActivityScore_CPDBAS_Mouse>
45

>  <TD50_Mouse_Note>
TD50 is harmonic mean of more than one positive test; greater than ten-fold variation among TD50 values for positive results

>  <TargetSites_Mouse_Male>
liver; urinary bladder

>  <TargetSites_Mouse_Female>
liver; urinary bladder

>  <ActivityOutcome_CPDBAS_Mouse>
active

>  <TD50_Hamster_mg>
17.4

>  <TD50_Hamster_mmol>
0.0779

>  <ActivityScore_CPDBAS_Hamster>
53

>  <TargetSites_Hamster_Male>
liver

>  <TargetSites_Hamster_Female>
no positive results

>  <ActivityOutcome_CPDBAS_Hamster>
active

>  <TargetSites_Rhesus>
no positive results

>  <TD50_Dog_Primates_Note>
no positive results for Rhesus

>  <ActivityOutcome_CPDBAS_Dog_Primates>
inactive

>  <ActivityOutcome_CPDBAS_SingleCellCall>
active

>  <ActivityOutcome_CPDBAS_MultiCellCall>
active

>  <ActivityOutcome_CPDBAS_MultiCellCall_Details>
multisite active; multisex active; multispecies active

>  <ChemicalPage_URL>
http://potency.berkeley.edu/chempages/2-ACETYLAMINOFLUORENE.html

$$$$



 17 19  0  0  0  0  0  0  0  0999 V2000
    2.4236    3.3523    0.0000 C   0  0  0  0  0  0  0  0  0  0  0  0
    3.4655    2.4085    0.0000 C   0  0  0  0  0  0  0  0  0  0  0  0
    2.8992    1.1326    0.0000 C   0  0  0  0  0  0  0  0  0  0  0  0
    3.7221    0.0000    0.0000 C   0  0  0  0  0  0  0  0  0  0  0  0
    5.1113    0.1434    0.0000 C   0  0  0  0  0  0  0  0  0  0  0  0
    5.6851    1.4269    0.0000 C   0  0  0  0  0  0  0  0  0  0  0  0
    4.8622    2.5595    0.0000 C   0  0  0  0  0  0  0  0  0  0  0  0
    1.5025    1.2760    0.0000 C   0  0  0  0  0  0  0  0  0  0  0  0
    1.2156    2.6501    0.0000 C   0  0  0  0  0  0  0  0  0  0  0  0
    0.0000    3.3523    0.0000 C   0  0  0  0  0  0  0  0  0  0  0  0
    0.0000    4.7490    0.0000 C   0  0  0  0  0  0  0  0  0  0  0  0
    1.2156    5.4511    0.0000 C   0  0  0  0  0  0  0  0  0  0  0  0
    2.4236    4.7490    0.0000 C   0  0  0  0  0  0  0  0  0  0  0  0
    3.6390    5.4511    0.0000 N   0  0  0  0  0  0  0  0  0  0  0  0
    3.6390    6.8478    0.0000 C   0  0  0  0  0  0  0  0  0  0  0  0
    2.4236    7.5500    0.0000 C   0  0  0  0  0  0  0  0  0  0  0  0
    4.8470    7.5500    0.0000 O   0  0  0  0  0  0  0  0  0  0  0  0
  1  2  1  0  0  0  0
  1  9  1  0  0  0  0
  1 13  2  0  0  0  0
  2  3  2  0  0  0  0
  2  7  1  0  0  0  0
  3  4  1  0  0  0  0
  3  8  1  0  0  0  0
  4  5  2  0  0  0  0
  5  6  1  0  0  0  0
  6  7  2  0  0  0  0
  8  9  1  0  0  0  0
  9 10  2  0  0  0  0
 10 11  1  0  0  0  0
 11 12  2  0  0  0  0
 12 13  1  0  0  0  0
 13 14  1  0  0  0  0
 14 15  1  0  0  0  0
 15 16  1  0  0  0  0
 15 17  2  0  0  0  0
M  END
>  <DSSTox_RID>
20019

>  <DSSTox_CID>
19

>  <DSSTox_Generic_SID>
20019

>  <DSSTox_FileID>
20_CPDBAS_v5d

>  <STRUCTURE_Formula>
C15H13NO

>  <STRUCTURE_MolecularWeight>
223.2698

>  <STRUCTURE_ChemicalType>
defined organic

>  <STRUCTURE_TestedForm_DefinedOrganic>
parent

>  <STRUCTURE_Shown>
tested chemical

>  <TestSubstance_ChemicalName>
4-Acetylaminofluorene

>  <TestSubstance_CASRN>
28322-02-3

>  <TestSubstance_Description>
single chemical compound

>  <STRUCTURE_ChemicalName_IUPAC>
N-9H-fluoren-4-ylacetamide

>  <STRUCTURE_SMILES>
C12C3=C(C=CC=C3)CC1=CC=CC=2NC(C)=O

>  <STRUCTURE_Parent_SMILES>
C12C3=C(C=CC=C3)CC1=CC=CC=2NC(C)=O

>  <STRUCTURE_InChI>
InChI=1/C15H13NO/c1-10(17)16-14-8-4-6-12-9-11-5-2-3-7-13(11)15(12)14/h2-8H,9H2,1H3,(H,16,17)/f/h16H

>  <STRUCTURE_InChIKey>
PHPWISAFHNEMSR-WYUMXYHSCU

>  <StudyType>
Carcinogenicity

>  <Endpoint>
TD50; Tumor Target Sites

>  <Species>
rat

>  <ActivityOutcome_CPDBAS_Mutagenicity>
active

>  <ActivityScore_CPDBAS_Rat>
0

>  <TD50_Rat_Note>
no positive results

>  <TargetSites_Rat_Female>
no positive results

>  <ActivityOutcome_CPDBAS_Rat>
inactive

>  <ActivityOutcome_CPDBAS_SingleCellCall>
inactive

>  <ChemicalPage_URL>
http://potency.berkeley.edu/chempages/4-ACETYLAMINOFLUORENE.html

$$$$



 14 14  0  0  0  0  0  0  0  0999 V2000
    5.7595   -0.6749    0.0000 C   0  0  0  0  0  0  0  0  0  0  0  0
    5.7595   -1.9876    0.0000 C   0  0  0  0  0  0  0  0  0  0  0  0
    4.6224    0.0000    0.0000 C   0  0  0  0  0  0  0  0  0  0  0  0
    4.6224   -2.6625    0.0000 C   0  0  0  0  0  0  0  0  0  0  0  0
    3.4853   -0.6749    0.0000 C   0  0  0  0  0  0  0  0  0  0  0  0
    3.4853   -1.9876    0.0000 C   0  0  0  0  0  0  0  0  0  0  0  0
    6.9335    0.0000    0.0000 C   0  0  0  0  0  0  0  0  0  0  0  0
    8.0891   -0.6564    0.0000 C   0  0  0  0  0  0  0  0  0  0  0  0
    9.2447    0.0000    0.0000 O   0  0  0  0  0  0  0  0  0  0  0  0
    8.0891   -1.9876    0.0000 O   0  0  0  0  0  0  0  0  0  0  0  0
    2.3112   -2.6625    0.0000 N   0  0  0  0  0  0  0  0  0  0  0  0
    1.1556   -1.9876    0.0000 C   0  0  0  0  0  0  0  0  0  0  0  0
    0.0000   -2.6625    0.0000 C   0  0  0  0  0  0  0  0  0  0  0  0
    1.1556   -0.6564    0.0000 O   0  0  0  0  0  0  0  0  0  0  0  0
  1  2  1  0  0  0  0
  1  3  2  0  0  0  0
  1  7  1  0  0  0  0
  2  4  2  0  0  0  0
  3  5  1  0  0  0  0
  4  6  1  0  0  0  0
  5  6  2  0  0  0  0
  6 11  1  0  0  0  0
  7  8  1  0  0  0  0
  8  9  2  0  0  0  0
  8 10  1  0  0  0  0
 11 12  1  0  0  0  0
 12 13  1  0  0  0  0
 12 14  2  0  0  0  0
M  END
>  <DSSTox_RID>
20020

>  <DSSTox_CID>
20

>  <DSSTox_Generic_SID>
20020

>  <DSSTox_FileID>
21_CPDBAS_v5d

>  <STRUCTURE_Formula>
C10H11NO3

>  <STRUCTURE_MolecularWeight>
193.1992

>  <STRUCTURE_ChemicalType>
defined organic

>  <STRUCTURE_TestedForm_DefinedOrganic>
parent

>  <STRUCTURE_Shown>
tested chemical

>  <TestSubstance_ChemicalName>
4-Acetylaminophenylacetic acid

>  <TestSubstance_CASRN>
18699-02-0

>  <TestSubstance_Description>
single chemical compound

>  <STRUCTURE_ChemicalName_IUPAC>
[4-(acetylamino)phenyl]acetic acid

>  <STRUCTURE_SMILES>
O=C(O)Cc1ccc(cc1)NC(C)=O

>  <STRUCTURE_Parent_SMILES>
O=C(O)Cc1ccc(cc1)NC(C)=O

>  <STRUCTURE_InChI>
InChI=1/C10H11NO3/c1-7(12)11-9-4-2-8(3-5-9)6-10(13)14/h2-5H,6H2,1H3,(H,11,12)(H,13,14)/f/h11,13H

>  <STRUCTURE_InChIKey>
MROJXXOCABQVEF-KZZMUEETCP

>  <StudyType>
Carcinogenicity

>  <Endpoint>
TD50; Tumor Target Sites

>  <Species>
rat; mouse

>  <ActivityScore_CPDBAS_Rat>
0

>  <TD50_Rat_Note>
no positive results

>  <TargetSites_Rat_Male>
no positive results

>  <TargetSites_Rat_Female>
no positive results

>  <ActivityOutcome_CPDBAS_Rat>
inactive

>  <ActivityScore_CPDBAS_Mouse>
0

>  <TD50_Mouse_Note>
no positive results

>  <TargetSites_Mouse_Male>
no positive results

>  <TargetSites_Mouse_Female>
no positive results

>  <ActivityOutcome_CPDBAS_Mouse>
inactive

>  <ActivityOutcome_CPDBAS_SingleCellCall>
inactive

>  <ActivityOutcome_CPDBAS_MultiCellCall>
inactive

>  <ActivityOutcome_CPDBAS_MultiCellCall_Details>
multisex inactive; multispecies inactive

>  <Note_CPDBAS>
Rat added v2a; Mouse added v2a

>  <ChemicalPage_URL>
http://potency.berkeley.edu/chempages/4-ACETYLAMINOPHENYLACETIC%20ACID.html

$$$$



 10  9  0  0  1  0  0  0  0  0999 V2000
    2.3100   -1.9854    0.0000 C   0  0  1  0  0  0  0  0  0  0  0  0
    3.4651   -1.3307    0.0000 C   0  0  0  0  0  0  0  0  0  0  0  0
    2.3100   -3.3213    0.0000 N   0  0  0  0  0  0  0  0  0  0  0  0
    3.4651   -3.9920    0.0000 C   0  0  0  0  0  0  0  0  0  0  0  0
    3.4651    0.0000    0.0000 O   0  0  0  0  0  0  0  0  0  0  0  0
    3.4651   -5.3227    0.0000 O   0  0  0  0  0  0  0  0  0  0  0  0
    4.6148   -1.9854    0.0000 O   0  0  0  0  0  0  0  0  0  0  0  0
    0.0000   -1.9854    0.0000 S   0  0  0  0  0  0  0  0  0  0  0  0
    1.1710   -1.3307    0.0000 C   0  0  0  0  0  0  0  0  0  0  0  0
    4.6148   -3.3213    0.0000 C   0  0  0  0  0  0  0  0  0  0  0  0
  1  2  1  0  0  0  0
  1  3  1  1  0  0  0
  1  9  1  0  0  0  0
  2  5  2  0  0  0  0
  2  7  1  0  0  0  0
  3  4  1  0  0  0  0
  4  6  2  0  0  0  0
  4 10  1  0  0  0  0
  8  9  1  0  0  0  0
M  END
>  <DSSTox_RID>
20021

>  <DSSTox_CID>
21

>  <DSSTox_Generic_SID>
20021

>  <DSSTox_FileID>
22_CPDBAS_v5d

>  <STRUCTURE_Formula>
C5H9NO3S

>  <STRUCTURE_MolecularWeight>
163.1949

>  <STRUCTURE_ChemicalType>
defined organic

>  <STRUCTURE_TestedForm_DefinedOrganic>
parent

>  <STRUCTURE_Shown>
tested chemical

>  <TestSubstance_ChemicalName>
N-acetylcysteine

>  <TestSubstance_CASRN>
616-91-1

>  <TestSubstance_Description>
single chemical compound

>  <ChemicalNote>
stereochem

>  <STRUCTURE_ChemicalName_IUPAC>
N-acetyl-L-cysteine

>  <STRUCTURE_SMILES>
CC(=O)N[C@@H](CS)C(=O)O

>  <STRUCTURE_Parent_SMILES>
CC(=O)N[C@@H](CS)C(=O)O

>  <STRUCTURE_InChI>
InChI=1/C5H9NO3S/c1-3(7)6-4(2-10)5(8)9/h4,10H,2H2,1H3,(H,6,7)(H,8,9)/t4-/m0/s1/f/h6,8H

>  <STRUCTURE_InChIKey>
PWKSKIMOESPYIA-JVBVHTJODB

>  <StudyType>
Carcinogenicity

>  <Endpoint>
TD50; Tumor Target Sites

>  <Species>
rat

>  <ActivityScore_CPDBAS_Rat>
0

>  <TD50_Rat_Note>
no positive results

>  <TargetSites_Rat_Male>
no positive results

>  <ActivityOutcome_CPDBAS_Rat>
inactive

>  <ActivityOutcome_CPDBAS_SingleCellCall>
inactive

>  <Note_CPDBAS>
Rat added v2a

>  <ChemicalPage_URL>
http://potency.berkeley.edu/chempages/N-ACETYLCYSTEINE.html

$$$$



 24 25  0  0  0  0  0  0  0  0999 V2000
   11.5157   -1.9922    0.0000 O   0  0  0  0  0  0  0  0  0  0  0  0
   10.3641   -1.3358    0.0000 C   0  0  0  0  0  0  0  0  0  0  0  0
   10.3641    0.0000    0.0000 O   0  0  0  0  0  0  0  0  0  0  0  0
    9.2126   -1.9922    0.0000 C   0  0  0  0  0  0  0  0  0  0  0  0
    9.2126   -3.3280    0.0000 C   0  0  0  0  0  0  0  0  0  0  0  0
    8.0610   -3.9959    0.0000 C   0  0  0  0  0  0  0  0  0  0  0  0
    6.9094   -3.3280    0.0000 C   0  0  0  0  0  0  0  0  0  0  0  0
    6.9094   -1.9922    0.0000 C   0  0  0  0  0  0  0  0  0  0  0  0
    8.0610   -1.3358    0.0000 C   0  0  0  0  0  0  0  0  0  0  0  0
    5.7578   -1.3358    0.0000 O   0  0  0  0  0  0  0  0  0  0  0  0
    4.6063   -1.9922    0.0000 C   0  0  0  0  0  0  0  0  0  0  0  0
    4.6063   -3.3280    0.0000 C   0  0  0  0  0  0  0  0  0  0  0  0
    3.4547   -3.9959    0.0000 C   0  0  0  0  0  0  0  0  0  0  0  0
    2.3031   -3.3280    0.0000 C   0  0  0  0  0  0  0  0  0  0  0  0
    2.3031   -1.9922    0.0000 C   0  0  0  0  0  0  0  0  0  0  0  0
    3.4547   -1.3358    0.0000 C   0  0  0  0  0  0  0  0  0  0  0  0
    3.4547    0.0000    0.0000 Cl  0  0  0  0  0  0  0  0  0  0  0  0
    1.1516   -3.9959    0.0000 C   0  0  0  0  0  0  0  0  0  0  0  0
    0.4837   -2.8444    0.0000 F   0  0  0  0  0  0  0  0  0  0  0  0
    1.8195   -5.1475    0.0000 F   0  0  0  0  0  0  0  0  0  0  0  0
    0.0000   -4.6523    0.0000 F   0  0  0  0  0  0  0  0  0  0  0  0
   10.3641   -3.9959    0.0000 N   0  3  0  0  0  0  0  0  0  0  0  0
   10.3641   -5.3203    0.0000 O   0  0  0  0  0  0  0  0  0  0  0  0
   11.5157   -3.3280    0.0000 O   0  5  0  0  0  0  0  0  0  0  0  0
  1  2  1  0  0  0  0
  2  3  2  0  0  0  0
  2  4  1  0  0  0  0
  4  5  2  0  0  0  0
  4  9  1  0  0  0  0
  5  6  1  0  0  0  0
  5 22  1  0  0  0  0
  6  7  2  0  0  0  0
  7  8  1  0  0  0  0
  8  9  2  0  0  0  0
  8 10  1  0  0  0  0
 10 11  1  0  0  0  0
 11 12  2  0  0  0  0
 11 16  1  0  0  0  0
 12 13  1  0  0  0  0
 13 14  2  0  0  0  0
 14 15  1  0  0  0  0
 14 18  1  0  0  0  0
 15 16  2  0  0  0  0
 16 17  1  0  0  0  0
 18 19  1  0  0  0  0
 18 20  1  0  0  0  0
 18 21  1  0  0  0  0
 22 23  2  0  0  0  0
 22 24  1  0  0  0  0
M  END
>  <DSSTox_RID>
20022

>  <DSSTox_CID>
22

>  <DSSTox_Generic_SID>
20022

>  <DSSTox_FileID>
23_CPDBAS_v5d

>  <STRUCTURE_Formula>
C14H7ClF3NO5

>  <STRUCTURE_MolecularWeight>
361.6573

>  <STRUCTURE_ChemicalType>
defined organic

>  <STRUCTURE_TestedForm_DefinedOrganic>
parent

>  <STRUCTURE_Shown>
tested chemical

>  <TestSubstance_ChemicalName>
Acifluorfen

>  <TestSubstance_CASRN>
50594-66-6

>  <TestSubstance_Description>
single chemical compound

>  <STRUCTURE_ChemicalName_IUPAC>
5-{[2-chloro-4-(trifluoromethyl)phenyl]oxy}-2-nitrobenzoic acid

>  <STRUCTURE_SMILES>
OC(=O)C1=C(C=CC(=C1)OC2=CC=C(C=C2Cl)C(F)(F)F)[N+](=O)[O-]

>  <STRUCTURE_Parent_SMILES>
OC(=O)C1=C(C=CC(=C1)OC2=CC=C(C=C2Cl)C(F)(F)F)[N+](=O)[O-]

>  <STRUCTURE_InChI>
InChI=1/C14H7ClF3NO5/c15-10-5-7(14(16,17)18)1-4-12(10)24-8-2-3-11(19(22)23)9(6-8)13(20)21/h1-6H,(H,20,21)/f/h20H

>  <STRUCTURE_InChIKey>
NUFNQYOELLVIPL-UYBDAZJACV

>  <StudyType>
Carcinogenicity

>  <Endpoint>
TD50; Tumor Target Sites

>  <Species>
mouse

>  <TD50_Mouse_mg>
141

>  <TD50_Mouse_mmol>
0.39

>  <ActivityScore_CPDBAS_Mouse>
33

>  <TD50_Mouse_Note>
TD50 is harmonic mean of more than one positive test

>  <TargetSites_Mouse_Male>
liver; stomach

>  <TargetSites_Mouse_Female>
liver; stomach

>  <ActivityOutcome_CPDBAS_Mouse>
active

>  <ActivityOutcome_CPDBAS_SingleCellCall>
active

>  <ActivityOutcome_CPDBAS_MultiCellCall>
active

>  <ActivityOutcome_CPDBAS_MultiCellCall_Details>
multisite active; multisex active

>  <ChemicalPage_URL>
http://potency.berkeley.edu/chempages/ACIFLUORFEN.html

$$$$



  4  3  0  0  0  0  0  0  0  0999 V2000
    0.0000    0.0000    0.0000 C   0  0  0  0  0  0  0  0  0  0  0  0
    1.1513   -0.6638    0.0000 C   0  0  0  0  0  0  0  0  0  0  0  0
    2.3061    0.0000    0.0000 C   0  0  0  0  0  0  0  0  0  0  0  0
    3.4575   -0.6638    0.0000 O   0  0  0  0  0  0  0  0  0  0  0  0
  1  2  2  0  0  0  0
  2  3  1  0  0  0  0
  3  4  2  0  0  0  0
M  END
>  <DSSTox_RID>
20023

>  <DSSTox_CID>
23

>  <DSSTox_Generic_SID>
20023

>  <DSSTox_FileID>
24_CPDBAS_v5d

>  <STRUCTURE_Formula>
C3H4O

>  <STRUCTURE_MolecularWeight>
56.0633

>  <STRUCTURE_ChemicalType>
defined organic

>  <STRUCTURE_TestedForm_DefinedOrganic>
parent

>  <STRUCTURE_Shown>
tested chemical

>  <TestSubstance_ChemicalName>
Acrolein

>  <TestSubstance_CASRN>
107-02-8

>  <TestSubstance_Description>
single chemical compound

>  <STRUCTURE_ChemicalName_IUPAC>
acrylaldehyde

>  <STRUCTURE_SMILES>
C=CC=O

>  <STRUCTURE_Parent_SMILES>
C=CC=O

>  <STRUCTURE_InChI>
InChI=1/C3H4O/c1-2-3-4/h2-3H,1H2

>  <STRUCTURE_InChIKey>
HGINCPLSRVDWNT-UHFFFAOYAQ

>  <StudyType>
Carcinogenicity

>  <Endpoint>
TD50; Tumor Target Sites

>  <Species>
rat; mouse

>  <ActivityOutcome_CPDBAS_Mutagenicity>
active

>  <ActivityScore_CPDBAS_Rat>
0

>  <TD50_Rat_Note>
no positive results

>  <TargetSites_Rat_Male>
no positive results

>  <TargetSites_Rat_Female>
no positive results

>  <ActivityOutcome_CPDBAS_Rat>
inactive

>  <ActivityScore_CPDBAS_Mouse>
0

>  <TD50_Mouse_Note>
no positive results

>  <TargetSites_Mouse_Male>
no positive results

>  <TargetSites_Mouse_Female>
no positive results

>  <ActivityOutcome_CPDBAS_Mouse>
inactive

>  <ActivityOutcome_CPDBAS_SingleCellCall>
inactive

>  <ActivityOutcome_CPDBAS_MultiCellCall>
inactive

>  <ActivityOutcome_CPDBAS_MultiCellCall_Details>
multisex inactive; multispecies inactive

>  <ChemicalPage_URL>
http://potency.berkeley.edu/chempages/ACROLEIN.html

$$$$



  9  8  0  0  0  0  0  0  0  0999 V2000
    0.0000   -1.9953    0.0000 C   0  0  0  0  0  0  0  0  0  0  0  0
    1.1520   -2.6588    0.0000 C   0  0  0  0  0  0  0  0  0  0  0  0
    2.3040   -1.9953    0.0000 C   0  0  0  0  0  0  0  0  0  0  0  0
    2.3040   -0.6635    0.0000 O   0  0  0  0  0  0  0  0  0  0  0  0
    1.1520    0.0000    0.0000 C   0  0  0  0  0  0  0  0  0  0  0  0
    0.0000   -0.6635    0.0000 C   0  0  0  0  0  0  0  0  0  0  0  0
    3.4560   -2.6588    0.0000 O   0  0  0  0  0  0  0  0  0  0  0  0
    4.6080   -1.9953    0.0000 C   0  0  0  0  0  0  0  0  0  0  0  0
    4.6080   -0.6635    0.0000 C   0  0  0  0  0  0  0  0  0  0  0  0
  1  2  2  0  0  0  0
  2  3  1  0  0  0  0
  3  4  1  0  0  0  0
  3  7  1  0  0  0  0
  4  5  1  0  0  0  0
  5  6  1  0  0  0  0
  7  8  1  0  0  0  0
  8  9  1  0  0  0  0
M  END
>  <DSSTox_RID>
20024

>  <DSSTox_CID>
24

>  <DSSTox_Generic_SID>
20024

>  <DSSTox_FileID>
25_CPDBAS_v5d

>  <STRUCTURE_Formula>
C7H14O2

>  <STRUCTURE_MolecularWeight>
130.1864

>  <STRUCTURE_ChemicalType>
defined organic

>  <STRUCTURE_TestedForm_DefinedOrganic>
parent

>  <STRUCTURE_Shown>
tested chemical

>  <TestSubstance_ChemicalName>
Acrolein diethylacetal

>  <TestSubstance_CASRN>
3054-95-3

>  <TestSubstance_Description>
single chemical compound

>  <STRUCTURE_ChemicalName_IUPAC>
3,3-bis(ethyloxy)prop-1-ene

>  <STRUCTURE_SMILES>
C=CC(OCC)OCC

>  <STRUCTURE_Parent_SMILES>
C=CC(OCC)OCC

>  <STRUCTURE_InChI>
InChI=1/C7H14O2/c1-4-7(8-5-2)9-6-3/h4,7H,1,5-6H2,2-3H3

>  <STRUCTURE_InChIKey>
MCIPQLOKVXSHTD-UHFFFAOYAI

>  <StudyType>
Carcinogenicity

>  <Endpoint>
TD50; Tumor Target Sites

>  <Species>
rat

>  <ActivityScore_CPDBAS_Rat>
0

>  <TD50_Rat_Note>
no positive results

>  <TargetSites_Rat_Male>
no positive results

>  <TargetSites_Rat_Female>
no positive results

>  <ActivityOutcome_CPDBAS_Rat>
inactive

>  <ActivityOutcome_CPDBAS_SingleCellCall>
inactive

>  <ActivityOutcome_CPDBAS_MultiCellCall>
inactive

>  <ActivityOutcome_CPDBAS_MultiCellCall_Details>
multisex inactive

>  <ChemicalPage_URL>
http://potency.berkeley.edu/chempages/ACROLEIN%20DIETHYLACETAL.html

$$$$



  5  4  0  0  0  0  0  0  0  0999 V2000
    4.6099   -0.6638    0.0000 C   0  0  0  0  0  0  0  0  0  0  0  0
    3.4575    0.0000    0.0000 C   0  0  0  0  0  0  0  0  0  0  0  0
    2.3050   -0.6638    0.0000 C   0  0  0  0  0  0  0  0  0  0  0  0
    1.1525    0.0000    0.0000 N   0  0  0  0  0  0  0  0  0  0  0  0
    0.0000   -0.6638    0.0000 O   0  0  0  0  0  0  0  0  0  0  0  0
  1  2  2  0  0  0  0
  2  3  1  0  0  0  0
  3  4  2  0  0  0  0
  4  5  1  0  0  0  0
M  END
>  <DSSTox_RID>
20025

>  <DSSTox_CID>
25

>  <DSSTox_Generic_SID>
20025

>  <DSSTox_FileID>
26_CPDBAS_v5d

>  <STRUCTURE_Formula>
C3H5NO

>  <STRUCTURE_MolecularWeight>
71.0786

>  <STRUCTURE_ChemicalType>
defined organic

>  <STRUCTURE_TestedForm_DefinedOrganic>
parent

>  <STRUCTURE_Shown>
tested chemical

>  <TestSubstance_ChemicalName>
Acrolein oxime

>  <TestSubstance_CASRN>
5314-33-0

>  <TestSubstance_Description>
single chemical compound

>  <STRUCTURE_ChemicalName_IUPAC>
(1E)-prop-2-enal oxime

>  <STRUCTURE_SMILES>
C=C/C=N/O

>  <STRUCTURE_Parent_SMILES>
C=C/C=N/O

>  <STRUCTURE_InChI>
InChI=1/C3H5NO/c1-2-3-4-5/h2-3,5H,1H2/b4-3+

>  <STRUCTURE_InChIKey>
KMNIXISXZFPRDC-ONEGZZNKBI

>  <StudyType>
Carcinogenicity

>  <Endpoint>
TD50; Tumor Target Sites

>  <Species>
rat

>  <ActivityScore_CPDBAS_Rat>
0

>  <TD50_Rat_Note>
no positive results

>  <TargetSites_Rat_Male>
no positive results

>  <TargetSites_Rat_Female>
no positive results

>  <ActivityOutcome_CPDBAS_Rat>
inactive

>  <ActivityOutcome_CPDBAS_SingleCellCall>
inactive

>  <ActivityOutcome_CPDBAS_MultiCellCall>
inactive

>  <ActivityOutcome_CPDBAS_MultiCellCall_Details>
multisex inactive

>  <ChemicalPage_URL>
http://potency.berkeley.edu/chempages/ACROLEIN%20OXIME.html

$$$$



 24 27  0  0  0  0  0  0  0  0999 V2000
    6.9100   -5.0061    0.0000 C   0  0  0  0  0  0  0  0  0  0  0  0
    5.7600   -5.6730    0.0000 N   0  0  0  0  0  0  0  0  0  0  0  0
    4.6099   -5.0061    0.0000 C   0  0  0  0  0  0  0  0  0  0  0  0
    3.4598   -5.6730    0.0000 C   0  0  0  0  0  0  0  0  0  0  0  0
    2.3001   -5.0061    0.0000 C   0  0  0  0  0  0  0  0  0  0  0  0
    1.1501   -5.6730    0.0000 O   0  0  0  0  0  0  0  0  0  0  0  0
    0.0000   -5.0061    0.0000 C   0  0  0  0  0  0  0  0  0  0  0  0
    2.3001   -3.6821    0.0000 C   0  0  0  0  0  0  0  0  0  0  0  0
    3.4598   -3.0153    0.0000 C   0  0  0  0  0  0  0  0  0  0  0  0
    4.6099   -3.6821    0.0000 C   0  0  0  0  0  0  0  0  0  0  0  0
    5.7600   -3.0153    0.0000 C   0  0  0  0  0  0  0  0  0  0  0  0
    5.7600   -1.6816    0.0000 C   0  0  0  0  0  0  0  0  0  0  0  0
    4.6099   -1.0148    0.0000 C   0  0  0  0  0  0  0  0  0  0  0  0
    3.4598   -1.6816    0.0000 O   0  0  0  0  0  0  0  0  0  0  0  0
    3.7498    0.0000    0.0000 C   0  0  0  0  0  0  0  0  0  0  0  0
    5.4604    0.0000    0.0000 C   0  0  0  0  0  0  0  0  0  0  0  0
    3.4598   -7.0067    0.0000 C   0  0  0  0  0  0  0  0  0  0  0  0
    4.6099   -7.6735    0.0000 C   0  0  0  0  0  0  0  0  0  0  0  0
    5.7600   -7.0067    0.0000 C   0  0  0  0  0  0  0  0  0  0  0  0
    6.9100   -7.6735    0.0000 C   0  0  0  0  0  0  0  0  0  0  0  0
    6.9100   -8.9975    0.0000 C   0  0  0  0  0  0  0  0  0  0  0  0
    5.7600   -9.6644    0.0000 C   0  0  0  0  0  0  0  0  0  0  0  0
    4.6099   -8.9975    0.0000 C   0  0  0  0  0  0  0  0  0  0  0  0
    2.3001   -7.6735    0.0000 O   0  0  0  0  0  0  0  0  0  0  0  0
  1  2  1  0  0  0  0
  2  3  1  0  0  0  0
  2 19  1  0  0  0  0
  3  4  2  0  0  0  0
  3 10  1  0  0  0  0
  4  5  1  0  0  0  0
  4 17  1  0  0  0  0
  5  6  1  0  0  0  0
  5  8  2  0  0  0  0
  6  7  1  0  0  0  0
  8  9  1  0  0  0  0
  9 10  2  0  0  0  0
  9 14  1  0  0  0  0
 10 11  1  0  0  0  0
 11 12  2  0  0  0  0
 12 13  1  0  0  0  0
 13 14  1  0  0  0  0
 13 15  1  0  0  0  0
 13 16  1  0  0  0  0
 17 18  1  0  0  0  0
 17 24  2  0  0  0  0
 18 19  2  0  0  0  0
 18 23  1  0  0  0  0
 19 20  1  0  0  0  0
 20 21  2  0  0  0  0
 21 22  1  0  0  0  0
 22 23  2  0  0  0  0
M  END
>  <DSSTox_RID>
20026

>  <DSSTox_CID>
26

>  <DSSTox_Generic_SID>
20026

>  <DSSTox_FileID>
27_CPDBAS_v5d

>  <STRUCTURE_Formula>
C20H19NO3

>  <STRUCTURE_MolecularWeight>
321.3698

>  <STRUCTURE_ChemicalType>
defined organic

>  <STRUCTURE_TestedForm_DefinedOrganic>
parent

>  <STRUCTURE_Shown>
tested chemical

>  <TestSubstance_ChemicalName>
Acronycine

>  <TestSubstance_CASRN>
7008-42-6

>  <TestSubstance_Description>
single chemical compound

>  <STRUCTURE_ChemicalName_IUPAC>
3,3,12-trimethyl-6-(methyloxy)-3,12-dihydro-7H-pyrano[2,3-c]acridin-7-one

>  <STRUCTURE_SMILES>
CN1C2=C(C(OC)=CC3=C2C=CC(O3)(C)C)C(C4=C1C=CC=C4)=O

>  <STRUCTURE_Parent_SMILES>
CN1C2=C(C(OC)=CC3=C2C=CC(O3)(C)C)C(C4=C1C=CC=C4)=O

>  <STRUCTURE_InChI>
InChI=1/C20H19NO3/c1-20(2)10-9-13-15(24-20)11-16(23-4)17-18(13)21(3)14-8-6-5-7-12(14)19(17)22/h5-11H,1-4H3

>  <STRUCTURE_InChIKey>
SMPZPKRDRQOOHT-UHFFFAOYAD

>  <StudyType>
Carcinogenicity

>  <Endpoint>
TD50; Tumor Target Sites

>  <Species>
rat; mouse

>  <TD50_Rat_mg>
0.505

>  <TD50_Rat_mmol>
0.00157

>  <ActivityScore_CPDBAS_Rat>
55

>  <TD50_Rat_Note>
positive test results only by intraperitoneal or intravenous injection; TD50 is harmonic mean of more than one positive test

>  <TargetSites_Rat_Male>
bone; peritoneal cavity

>  <TargetSites_Rat_Female>
mammary gland; peritoneal cavity

>  <ActivityOutcome_CPDBAS_Rat>
active

>  <ActivityScore_CPDBAS_Mouse>
0

>  <TD50_Mouse_Note>
only experiment is NCI NTP bioassay inadequate

>  <TargetSites_Mouse_Male>
NTP bioassay inadequate

>  <TargetSites_Mouse_Female>
NTP bioassay inadequate

>  <ActivityOutcome_CPDBAS_Mouse>
unspecified

>  <ActivityOutcome_CPDBAS_SingleCellCall>
active

>  <ActivityOutcome_CPDBAS_MultiCellCall>
active

>  <ActivityOutcome_CPDBAS_MultiCellCall_Details>
multisite active; multisex active

>  <Note_CPDBAS>
ActivityOutcome_CPDBAS_Mouse modified v5d

>  <NTP_TechnicalReport>
TR 49

>  <ChemicalPage_URL>
http://potency.berkeley.edu/chempages/ACRONYCINE.html

$$$$



  5  4  0  0  0  0  0  0  0  0999 V2000
    3.4567   -1.9945    0.0000 N   0  0  0  0  0  0  0  0  0  0  0  0
    2.3056   -1.3308    0.0000 C   0  0  0  0  0  0  0  0  0  0  0  0
    2.3056    0.0000    0.0000 O   0  0  0  0  0  0  0  0  0  0  0  0
    1.1511   -1.9945    0.0000 C   0  0  0  0  0  0  0  0  0  0  0  0
    0.0000   -1.3308    0.0000 C   0  0  0  0  0  0  0  0  0  0  0  0
  1  2  1  0  0  0  0
  2  3  2  0  0  0  0
  2  4  1  0  0  0  0
  4  5  2  0  0  0  0
M  END
>  <DSSTox_RID>
20027

>  <DSSTox_CID>
27

>  <DSSTox_Generic_SID>
20027

>  <DSSTox_FileID>
28_CPDBAS_v5d

>  <STRUCTURE_Formula>
C3H5NO

>  <STRUCTURE_MolecularWeight>
71.0779

>  <STRUCTURE_ChemicalType>
defined organic

>  <STRUCTURE_TestedForm_DefinedOrganic>
parent

>  <STRUCTURE_Shown>
tested chemical

>  <TestSubstance_ChemicalName>
Acrylamide

>  <TestSubstance_CASRN>
79-06-1

>  <TestSubstance_Description>
single chemical compound

>  <STRUCTURE_ChemicalName_IUPAC>
acrylamide

>  <STRUCTURE_SMILES>
NC(=O)C=C

>  <STRUCTURE_Parent_SMILES>
NC(=O)C=C

>  <STRUCTURE_InChI>
InChI=1/C3H5NO/c1-2-3(4)5/h2H,1H2,(H2,4,5)/f/h4H2

>  <STRUCTURE_InChIKey>
HRPVXLWXLXDGHG-LGEMBHMGCJ

>  <StudyType>
Carcinogenicity

>  <Endpoint>
TD50; Tumor Target Sites

>  <Species>
rat

>  <ActivityOutcome_CPDBAS_Mutagenicity>
inactive

>  <TD50_Rat_mg>
3.75

>  <TD50_Rat_mmol>
0.0528

>  <ActivityScore_CPDBAS_Rat>
39

>  <TD50_Rat_Note>
TD50 is harmonic mean of more than one positive test

>  <TargetSites_Rat_Male>
nervous system; peritoneal cavity; thyroid gland

>  <TargetSites_Rat_Female>
clitoral gland; mammary gland; nervous system; oral cavity; thyroid gland; uterus

>  <ActivityOutcome_CPDBAS_Rat>
active

>  <ActivityOutcome_CPDBAS_SingleCellCall>
active

>  <ActivityOutcome_CPDBAS_MultiCellCall>
active

>  <ActivityOutcome_CPDBAS_MultiCellCall_Details>
multisite active; multisex active

>  <Note_CPDBAS>
TD50_Rat modified v3a

>  <ChemicalPage_URL>
http://potency.berkeley.edu/chempages/ACRYLAMIDE.html

$$$$



  5  4  0  0  0  0  0  0  0  0999 V2000
    3.4567   -1.9945    0.0000 O   0  0  0  0  0  0  0  0  0  0  0  0
    2.3056   -1.3308    0.0000 C   0  0  0  0  0  0  0  0  0  0  0  0
    2.3056    0.0000    0.0000 O   0  0  0  0  0  0  0  0  0  0  0  0
    1.1511   -1.9945    0.0000 C   0  0  0  0  0  0  0  0  0  0  0  0
    0.0000   -1.3308    0.0000 C   0  0  0  0  0  0  0  0  0  0  0  0
  1  2  1  0  0  0  0
  2  3  2  0  0  0  0
  2  4  1  0  0  0  0
  4  5  2  0  0  0  0
M  END
>  <DSSTox_RID>
20028

>  <DSSTox_CID>
28

>  <DSSTox_Generic_SID>
39229

>  <DSSTox_FileID>
29_CPDBAS_v5d

>  <STRUCTURE_Formula>
C3H4O2

>  <STRUCTURE_MolecularWeight>
72.0627

>  <STRUCTURE_ChemicalType>
defined organic

>  <STRUCTURE_TestedForm_DefinedOrganic>
parent

>  <STRUCTURE_Shown>
tested chemical

>  <TestSubstance_ChemicalName>
Acrylic acid

>  <TestSubstance_CASRN>
79-10-7

>  <TestSubstance_Description>
single chemical compound

>  <STRUCTURE_ChemicalName_IUPAC>
acrylic acid

>  <STRUCTURE_SMILES>
OC(=O)C=C

>  <STRUCTURE_Parent_SMILES>
OC(=O)C=C

>  <STRUCTURE_InChI>
InChI=1/C3H4O2/c1-2-3(4)5/h2H,1H2,(H,4,5)/f/h4H

>  <STRUCTURE_InChIKey>
NIXOWILDQLNWCW-JLSKMEETCA

>  <StudyType>
Carcinogenicity

>  <Endpoint>
TD50; Tumor Target Sites

>  <Species>
rat

>  <ActivityOutcome_CPDBAS_Mutagenicity>
inactive

>  <ActivityScore_CPDBAS_Rat>
0

>  <TD50_Rat_Note>
no positive results

>  <TargetSites_Rat_Male>
no positive results

>  <TargetSites_Rat_Female>
no positive results

>  <ActivityOutcome_CPDBAS_Rat>
inactive

>  <ActivityOutcome_CPDBAS_SingleCellCall>
inactive

>  <ActivityOutcome_CPDBAS_MultiCellCall>
inactive

>  <ActivityOutcome_CPDBAS_MultiCellCall_Details>
multisex inactive

>  <ChemicalPage_URL>
http://potency.berkeley.edu/chempages/ACRYLIC%20ACID.html

$$$$



  4  3  0  0  0  0  0  0  0  0999 V2000
    0.0000    0.0000    0.0000 C   0  0  0  0  0  0  0  0  0  0  0  0
    0.6652   -1.1508    0.0000 C   0  0  0  0  0  0  0  0  0  0  0  0
    1.9956   -1.1508    0.0000 C   0  0  0  0  0  0  0  0  0  0  0  0
    3.3260   -1.1508    0.0000 N   0  0  0  0  0  0  0  0  0  0  0  0
  1  2  2  0  0  0  0
  2  3  1  0  0  0  0
  3  4  3  0  0  0  0
M  END
>  <DSSTox_RID>
20029

>  <DSSTox_CID>
29

>  <DSSTox_Generic_SID>
20029

>  <DSSTox_FileID>
30_CPDBAS_v5d

>  <STRUCTURE_Formula>
C3H3N

>  <STRUCTURE_MolecularWeight>
53.0626

>  <STRUCTURE_ChemicalType>
defined organic

>  <STRUCTURE_TestedForm_DefinedOrganic>
parent

>  <STRUCTURE_Shown>
tested chemical

>  <TestSubstance_ChemicalName>
Acrylonitrile

>  <TestSubstance_CASRN>
107-13-1

>  <TestSubstance_Description>
single chemical compound

>  <STRUCTURE_ChemicalName_IUPAC>
acrylonitrile

>  <STRUCTURE_SMILES>
C=CC#N

>  <STRUCTURE_Parent_SMILES>
C=CC#N

>  <STRUCTURE_InChI>
InChI=1/C3H3N/c1-2-3-4/h2H,1H2

>  <STRUCTURE_InChIKey>
NLHHRLWOUZZQLW-UHFFFAOYAG

>  <StudyType>
Carcinogenicity

>  <Endpoint>
TD50; Tumor Target Sites

>  <Species>
rat; mouse

>  <ActivityOutcome_CPDBAS_Mutagenicity>
active

>  <TD50_Rat_mg>
16.9

>  <TD50_Rat_mmol>
0.318

>  <ActivityScore_CPDBAS_Rat>
31

>  <TD50_Rat_Note>
TD50 is harmonic mean of more than one positive test; greater than ten-fold variation among TD50 values for positive results

>  <TargetSites_Rat_Male>
ear Zymbals gland; nervous system; oral cavity; small intestine; stomach

>  <TargetSites_Rat_Female>
ear Zymbals gland; mammary gland; nasal cavity; nervous system; oral cavity; small intestine; stomach

>  <ActivityOutcome_CPDBAS_Rat>
active

>  <TD50_Mouse_mg>
6.32

>  <TD50_Mouse_mmol>
0.119

>  <ActivityScore_CPDBAS_Mouse>
39

>  <TD50_Mouse_Note>
TD50 is harmonic mean of more than one positive test

>  <TargetSites_Mouse_Male>
harderian gland; stomach

>  <TargetSites_Mouse_Female>
harderian gland; stomach

>  <ActivityOutcome_CPDBAS_Mouse>
active

>  <ActivityOutcome_CPDBAS_SingleCellCall>
active

>  <ActivityOutcome_CPDBAS_MultiCellCall>
active

>  <ActivityOutcome_CPDBAS_MultiCellCall_Details>
multisite active; multisex active

>  <Note_CPDBAS>
Mouse added v5a

>  <ChemicalPage_URL>
http://potency.berkeley.edu/chempages/ACRYLONITRILE.html

$$$$



 92 98  0  0  1  0  0  0  0  0999 V2000
   11.5534  -11.4484    0.0000 C   0  0  0  0  0  0  0  0  0  0  0  0
   11.5534  -12.6457    0.0000 C   0  0  0  0  0  0  0  0  0  0  0  0
   12.5827  -10.8602    0.0000 C   0  0  0  0  0  0  0  0  0  0  0  0
   10.5031  -10.8602    0.0000 N   0  0  0  0  0  0  0  0  0  0  0  0
   10.5031  -13.2549    0.0000 O   0  0  0  0  0  0  0  0  0  0  0  0
   12.5827  -13.2549    0.0000 C   0  0  0  0  0  0  0  0  0  0  0  0
   12.5827   -9.6629    0.0000 C   0  0  0  0  0  0  0  0  0  0  0  0
   13.6330  -11.4484    0.0000 C   0  0  0  0  0  0  0  0  0  0  0  0
    9.4738  -11.4484    0.0000 C   0  0  0  0  0  0  0  0  0  0  0  0
    9.4738  -12.6457    0.0000 C   0  0  0  0  0  0  0  0  0  0  0  0
   13.6330  -12.6457    0.0000 C   0  0  0  0  0  0  0  0  0  0  0  0
   12.5827  -14.4523    0.0000 C   0  0  0  0  0  0  0  0  0  0  0  0
   13.6330   -9.0537    0.0000 N   0  0  0  0  0  0  0  0  0  0  0  0
   11.5534   -9.0537    0.0000 O   0  0  0  0  0  0  0  0  0  0  0  0
   14.6623  -10.8602    0.0000 N   0  0  0  0  0  0  0  0  0  0  0  0
    8.4235  -10.8602    0.0000 C   0  0  0  0  0  0  0  0  0  0  0  0
    8.4235  -13.2549    0.0000 C   0  0  0  0  0  0  0  0  0  0  0  0
   14.6623  -13.2549    0.0000 O   0  0  0  0  0  0  0  0  0  0  0  0
    8.4235   -9.6629    0.0000 C   0  0  0  0  0  0  0  0  0  0  0  0
    7.3942  -11.4484    0.0000 C   0  0  0  0  0  0  0  0  0  0  0  0
    7.3942  -12.6457    0.0000 C   0  0  0  0  0  0  0  0  0  0  0  0
    8.4235  -14.4523    0.0000 C   0  0  0  0  0  0  0  0  0  0  0  0
    7.3942   -9.0537    0.0000 N   0  0  0  0  0  0  0  0  0  0  0  0
    9.4738   -9.0537    0.0000 O   0  0  0  0  0  0  0  0  0  0  0  0
   13.6330   -7.7933    0.0000 C   0  0  2  0  0  0  0  0  0  0  0  0
   12.5407   -7.1631    0.0000 C   0  0  0  0  0  0  0  0  0  0  0  0
   14.7043   -7.1631    0.0000 C   0  0  1  0  0  0  0  0  0  0  0  0
   12.5407   -2.2897    0.0000 N   0  0  0  0  0  0  0  0  0  0  0  0
   11.4694   -7.7933    0.0000 O   0  0  0  0  0  0  0  0  0  0  0  0
   14.7043   -5.9238    0.0000 C   0  0  0  0  0  0  0  0  0  0  0  0
   15.8177   -7.7723    0.0000 O   0  0  0  0  0  0  0  0  0  0  0  0
   16.8470   -7.1841    0.0000 C   0  0  0  0  0  0  0  0  0  0  0  0
   16.8470   -5.9868    0.0000 O   0  0  0  0  0  0  0  0  0  0  0  0
   13.5280   -1.8065    0.0000 C   0  0  2  0  0  0  0  0  0  0  0  0
   13.5280   -0.6092    0.0000 C   0  0  0  0  0  0  0  0  0  0  0  0
   15.6706   -2.3947    0.0000 C   0  0  0  0  0  0  0  0  0  0  0  0
   17.9603   -1.4704    0.0000 N   0  0  0  0  0  0  0  0  0  0  0  0
   15.6706   -3.5921    0.0000 O   0  0  0  0  0  0  0  0  0  0  0  0
   18.3384   -0.3151    0.0000 C   0  0  0  0  0  0  0  0  0  0  0  0
   18.9266   -2.1846    0.0000 C   0  0  2  0  0  0  0  0  0  0  0  0
   19.5358   -0.3151    0.0000 C   0  0  0  0  0  0  0  0  0  0  0  0
   19.9139   -1.4704    0.0000 C   0  0  0  0  0  0  0  0  0  0  0  0
   12.4777    0.0000    0.0000 C   0  0  0  0  0  0  0  0  0  0  0  0
   14.5573    0.0000    0.0000 C   0  0  0  0  0  0  0  0  0  0  0  0
   19.9559   -2.7728    0.0000 H   0  0  0  0  0  0  0  0  0  0  0  0
   18.9266   -3.5711    0.0000 C   0  0  0  0  0  0  0  0  0  0  0  0
   17.9183   -4.1802    0.0000 O   0  0  0  0  0  0  0  0  0  0  0  0
   19.9769   -4.1802    0.0000 N   0  0  0  0  0  0  0  0  0  0  0  0
   19.9769   -5.3776    0.0000 C   0  0  0  0  0  0  0  0  0  0  0  0
   21.0062   -3.5711    0.0000 C   0  0  0  0  0  0  0  0  0  0  0  0
   18.9266   -5.9868    0.0000 C   0  0  0  0  0  0  0  0  0  0  0  0
   17.9183   -5.3776    0.0000 O   0  0  0  0  0  0  0  0  0  0  0  0
   18.9266   -7.1841    0.0000 N   0  0  0  0  0  0  0  0  0  0  0  0
   19.9769   -7.7723    0.0000 C   0  0  0  0  0  0  0  0  0  0  0  0
   17.9183   -7.7723    0.0000 C   0  0  1  0  0  0  0  0  0  0  0  0
   17.9183   -8.9697    0.0000 C   0  0  0  0  0  0  0  0  0  0  0  0
   18.9266   -9.5788    0.0000 C   0  0  0  0  0  0  0  0  0  0  0  0
   16.8470   -9.5788    0.0000 C   0  0  0  0  0  0  0  0  0  0  0  0
    7.3942   -7.7933    0.0000 C   0  0  2  0  0  0  0  0  0  0  0  0
    8.4865   -7.1631    0.0000 C   0  0  0  0  0  0  0  0  0  0  0  0
    6.3229   -7.1631    0.0000 C   0  0  1  0  0  0  0  0  0  0  0  0
    8.4865   -2.2897    0.0000 N   0  0  0  0  0  0  0  0  0  0  0  0
    9.5578   -7.7933    0.0000 O   0  0  0  0  0  0  0  0  0  0  0  0
    6.3229   -5.9238    0.0000 C   0  0  0  0  0  0  0  0  0  0  0  0
    5.1885   -7.7723    0.0000 O   0  0  0  0  0  0  0  0  0  0  0  0
    4.1592   -7.1841    0.0000 C   0  0  0  0  0  0  0  0  0  0  0  0
    4.1592   -5.9868    0.0000 O   0  0  0  0  0  0  0  0  0  0  0  0
    7.4992   -1.8065    0.0000 C   0  0  2  0  0  0  0  0  0  0  0  0
    7.4992   -0.6092    0.0000 C   0  0  0  0  0  0  0  0  0  0  0  0
    5.3566   -2.3947    0.0000 C   0  0  0  0  0  0  0  0  0  0  0  0
    3.0459   -1.4704    0.0000 N   0  0  0  0  0  0  0  0  0  0  0  0
    5.3566   -3.5921    0.0000 O   0  0  0  0  0  0  0  0  0  0  0  0
    2.6678   -0.3151    0.0000 C   0  0  0  0  0  0  0  0  0  0  0  0
    2.0796   -2.1846    0.0000 C   0  0  2  0  0  0  0  0  0  0  0  0
    1.4704   -0.3151    0.0000 C   0  0  0  0  0  0  0  0  0  0  0  0
    1.1133   -1.4704    0.0000 C   0  0  0  0  0  0  0  0  0  0  0  0
    8.5285    0.0000    0.0000 C   0  0  0  0  0  0  0  0  0  0  0  0
    6.4489    0.0000    0.0000 C   0  0  0  0  0  0  0  0  0  0  0  0
    1.0713   -2.7728    0.0000 H   0  0  0  0  0  0  0  0  0  0  0  0
    2.0796   -3.5711    0.0000 C   0  0  0  0  0  0  0  0  0  0  0  0
    3.1089   -4.1802    0.0000 O   0  0  0  0  0  0  0  0  0  0  0  0
    1.0293   -4.1802    0.0000 N   0  0  0  0  0  0  0  0  0  0  0  0
    1.0293   -5.3776    0.0000 C   0  0  0  0  0  0  0  0  0  0  0  0
    0.0000   -3.5711    0.0000 C   0  0  0  0  0  0  0  0  0  0  0  0
    2.0796   -5.9868    0.0000 C   0  0  0  0  0  0  0  0  0  0  0  0
    3.1089   -5.3776    0.0000 O   0  0  0  0  0  0  0  0  0  0  0  0
    2.0796   -7.1841    0.0000 N   0  0  0  0  0  0  0  0  0  0  0  0
    1.0293   -7.7723    0.0000 C   0  0  0  0  0  0  0  0  0  0  0  0
    3.1089   -7.7723    0.0000 C   0  0  1  0  0  0  0  0  0  0  0  0
    3.1089   -8.9697    0.0000 C   0  0  0  0  0  0  0  0  0  0  0  0
    2.0796   -9.5788    0.0000 C   0  0  0  0  0  0  0  0  0  0  0  0
    4.1592   -9.5788    0.0000 C   0  0  0  0  0  0  0  0  0  0  0  0
  1  2  1  0  0  0  0
  1  3  1  0  0  0  0
  1  4  2  0  0  0  0
  2  5  1  0  0  0  0
  2  6  2  0  0  0  0
  3  7  1  0  0  0  0
  3  8  2  0  0  0  0
  4  9  1  0  0  0  0
  5 10  1  0  0  0  0
  6 11  1  0  0  0  0
  6 12  1  0  0  0  0
  7 13  1  0  0  0  0
  7 14  2  0  0  0  0
  8 15  1  0  0  0  0
  8 11  1  0  0  0  0
  9 16  2  0  0  0  0
  9 10  1  0  0  0  0
 10 17  2  0  0  0  0
 11 18  2  0  0  0  0
 25 13  1  6  0  0  0
 16 19  1  0  0  0  0
 16 20  1  0  0  0  0
 17 21  1  0  0  0  0
 17 22  1  0  0  0  0
 19 23  1  0  0  0  0
 19 24  2  0  0  0  0
 20 21  2  0  0  0  0
 59 23  1  1  0  0  0
 25 26  1  0  0  0  0
 25 27  1  0  0  0  0
 26 28  1  0  0  0  0
 26 29  2  0  0  0  0
 27 30  1  1  0  0  0
 27 31  1  0  0  0  0
 28 34  1  0  0  0  0
 31 32  1  0  0  0  0
 32 33  2  0  0  0  0
 32 55  1  0  0  0  0
 34 35  1  6  0  0  0
 34 36  1  0  0  0  0
 35 43  1  0  0  0  0
 35 44  1  0  0  0  0
 36 37  1  0  0  0  0
 36 38  2  0  0  0  0
 37 39  1  0  0  0  0
 37 40  1  0  0  0  0
 39 41  1  0  0  0  0
 40 42  1  0  0  0  0
 40 45  1  6  0  0  0
 40 46  1  0  0  0  0
 41 42  1  0  0  0  0
 46 47  2  0  0  0  0
 46 48  1  0  0  0  0
 48 49  1  0  0  0  0
 48 50  1  0  0  0  0
 49 51  1  0  0  0  0
 51 52  2  0  0  0  0
 51 53  1  0  0  0  0
 53 54  1  0  0  0  0
 53 55  1  0  0  0  0
 55 56  1  1  0  0  0
 56 57  1  0  0  0  0
 56 58  1  0  0  0  0
 59 60  1  0  0  0  0
 59 61  1  0  0  0  0
 60 62  1  0  0  0  0
 60 63  2  0  0  0  0
 61 64  1  6  0  0  0
 61 65  1  0  0  0  0
 62 68  1  0  0  0  0
 65 66  1  0  0  0  0
 66 67  2  0  0  0  0
 66 89  1  0  0  0  0
 68 69  1  1  0  0  0
 68 70  1  0  0  0  0
 69 77  1  0  0  0  0
 69 78  1  0  0  0  0
 70 71  1  0  0  0  0
 70 72  2  0  0  0  0
 71 73  1  0  0  0  0
 71 74  1  0  0  0  0
 73 75  1  0  0  0  0
 74 76  1  0  0  0  0
 74 79  1  1  0  0  0
 74 80  1  0  0  0  0
 75 76  1  0  0  0  0
 80 81  2  0  0  0  0
 80 82  1  0  0  0  0
 82 83  1  0  0  0  0
 82 84  1  0  0  0  0
 83 85  1  0  0  0  0
 85 86  2  0  0  0  0
 85 87  1  0  0  0  0
 87 88  1  0  0  0  0
 87 89  1  0  0  0  0
 89 90  1  6  0  0  0
 90 91  1  0  0  0  0
 90 92  1  0  0  0  0
M  END
>  <DSSTox_RID>
20031

>  <DSSTox_CID>
31

>  <DSSTox_Generic_SID>
20031

>  <DSSTox_FileID>
32_CPDBAS_v5d

>  <STRUCTURE_Formula>
C62H86N12O16

>  <STRUCTURE_MolecularWeight>
1255.417

>  <STRUCTURE_ChemicalType>
defined organic

>  <STRUCTURE_TestedForm_DefinedOrganic>
parent

>  <STRUCTURE_Shown>
tested chemical

>  <TestSubstance_ChemicalName>
Actinomycin D

>  <TestSubstance_CASRN>
50-76-0

>  <TestSubstance_Description>
single chemical compound

>  <ChemicalNote>
stereochem

>  <STRUCTURE_ChemicalName_IUPAC>
2-amino-4,6-dimethyl-3-oxo-N,N'-bis[(6S,9R,10S,13R,18aS)-2,5,9-trimethyl-6,13-bis(1-methylethyl)-1,4,7,11,14-pentaoxohexadecahydro-1H-pyrrolo[2,1-i][1,4,7,10,13]oxatetraazacyclohexadecin-10-yl]-3H-phenoxazine-1,9-dicarboxamide

>  <STRUCTURE_SMILES>
C12C(OC3=C(N=1)C(=CC=C3C)C(N[C@@H]4C(N[C@@H](C(N5[C@@H](CCC5)C(N(CC(N([C@H](C(O[C@H]4C)=O)C(C)C)C)=O)C)=O)=O)C(C)C)=O)=O)=C(C(C(=C2C(N[C@@H]6C(N[C@@H](C(N7[C@@H](CCC7)C(N(CC(N([C@H](C(O[C@H]6C)=O)C(C)C)C)=O)C)=O)=O)C(C)C)=O)=O)N)=O)C

>  <STRUCTURE_Parent_SMILES>
C12C(OC3=C(N=1)C(=CC=C3C)C(N[C@@H]4C(N[C@@H](C(N5[C@@H](CCC5)C(N(CC(N([C@H](C(O[C@H]4C)=O)C(C)C)C)=O)C)=O)=O)C(C)C)=O)=O)=C(C(C(=C2C(N[C@@H]6C(N[C@@H](C(N7[C@@H](CCC7)C(N(CC(N([C@H](C(O[C@H]6C)=O)C(C)C)C)=O)C)=O)=O)C(C)C)=O)=O)N)=O)C

>  <STRUCTURE_InChI>
InChI=1/C62H86N12O16/c1-27(2)42-59(84)73-23-17-19-36(73)57(82)69(13)25-38(75)71(15)48(29(5)6)61(86)88-33(11)44(55(80)65-42)67-53(78)35-22-21-31(9)51-46(35)64-47-40(41(63)50(77)32(10)52(47)90-51)54(79)68-45-34(12)89-62(87)49(30(7)8)72(16)39(76)26-70(14)58(83)37-20-18-24-74(37)60(85)43(28(3)4)66-56(45)81/h21-22,27-30,33-34,36-37,42-45,48-49H,17-20,23-26,63H2,1-16H3,(H,65,80)(H,66,81)(H,67,78)(H,68,79)/t33-,34-,36+,37+,42-,43-,44+,45+,48+,49+/m1/s1/f/h65-68H

>  <STRUCTURE_InChIKey>
RJURFGZVJUQBHK-HQANWYOLDQ

>  <StudyType>
Carcinogenicity

>  <Endpoint>
TD50; Tumor Target Sites

>  <Species>
rat

>  <ActivityOutcome_CPDBAS_Mutagenicity>
inactive

>  <TD50_Rat_mg>
0.00111

>  <TD50_Rat_mmol>
0.000000884

>  <ActivityScore_CPDBAS_Rat>
88

>  <TD50_Rat_Note>
positive test results only by intraperitoneal or intravenous injection; TD50 is harmonic mean of more than one positive test

>  <TargetSites_Rat_Male>
peritoneal cavity

>  <TargetSites_Rat_Female>
peritoneal cavity

>  <ActivityOutcome_CPDBAS_Rat>
active

>  <ActivityOutcome_CPDBAS_SingleCellCall>
active

>  <ActivityOutcome_CPDBAS_MultiCellCall>
active

>  <ActivityOutcome_CPDBAS_MultiCellCall_Details>
multisex active

>  <Note_CPDBAS>
TD50_Rat_Note modified v5a

>  <ChemicalPage_URL>
http://potency.berkeley.edu/chempages/ACTINOMYCIN%20D.html

$$$$



 10  9  0  0  0  0  0  0  0  0999 V2000
    8.0713   -1.9936    0.0000 N   0  0  0  0  0  0  0  0  0  0  0  0
    6.9171   -1.3318    0.0000 C   0  0  0  0  0  0  0  0  0  0  0  0
    6.9171    0.0000    0.0000 O   0  0  0  0  0  0  0  0  0  0  0  0
    5.7629   -1.9936    0.0000 C   0  0  0  0  0  0  0  0  0  0  0  0
    4.6087   -1.3318    0.0000 C   0  0  0  0  0  0  0  0  0  0  0  0
    3.4626   -1.9936    0.0000 C   0  0  0  0  0  0  0  0  0  0  0  0
    2.3084   -1.3318    0.0000 C   0  0  0  0  0  0  0  0  0  0  0  0
    1.1542   -1.9936    0.0000 C   0  0  0  0  0  0  0  0  0  0  0  0
    1.1542   -3.3254    0.0000 O   0  0  0  0  0  0  0  0  0  0  0  0
    0.0000   -1.3318    0.0000 N   0  0  0  0  0  0  0  0  0  0  0  0
  1  2  1  0  0  0  0
  2  3  2  0  0  0  0
  2  4  1  0  0  0  0
  4  5  1  0  0  0  0
  5  6  1  0  0  0  0
  6  7  1  0  0  0  0
  7  8  1  0  0  0  0
  8  9  2  0  0  0  0
  8 10  1  0  0  0  0
M  END
>  <DSSTox_RID>
20032

>  <DSSTox_CID>
32

>  <DSSTox_Generic_SID>
20032

>  <DSSTox_FileID>
33_CPDBAS_v5d

>  <STRUCTURE_Formula>
C6H12N2O2

>  <STRUCTURE_MolecularWeight>
144.1717

>  <STRUCTURE_ChemicalType>
defined organic

>  <STRUCTURE_TestedForm_DefinedOrganic>
parent

>  <STRUCTURE_Shown>
tested chemical

>  <TestSubstance_ChemicalName>
Adipamide

>  <TestSubstance_CASRN>
628-94-4

>  <TestSubstance_Description>
single chemical compound

>  <STRUCTURE_ChemicalName_IUPAC>
hexanediamide

>  <STRUCTURE_SMILES>
NC(=O)CCCCC(=O)N

>  <STRUCTURE_Parent_SMILES>
NC(=O)CCCCC(=O)N

>  <STRUCTURE_InChI>
InChI=1/C6H12N2O2/c7-5(9)3-1-2-4-6(8)10/h1-4H2,(H2,7,9)(H2,8,10)/f/h7-8H2

>  <STRUCTURE_InChIKey>
GVNWZKBFMFUVNX-UNXFWZPKCL

>  <StudyType>
Carcinogenicity

>  <Endpoint>
TD50; Tumor Target Sites

>  <Species>
rat; mouse

>  <ActivityOutcome_CPDBAS_Mutagenicity>
inactive

>  <ActivityScore_CPDBAS_Rat>
0

>  <TD50_Rat_Note>
no positive results

>  <TargetSites_Rat_Male>
no positive results

>  <TargetSites_Rat_Female>
no positive results

>  <ActivityOutcome_CPDBAS_Rat>
inactive

>  <ActivityScore_CPDBAS_Mouse>
0

>  <TD50_Mouse_Note>
no positive results

>  <TargetSites_Mouse_Male>
no positive results

>  <TargetSites_Mouse_Female>
no positive results

>  <ActivityOutcome_CPDBAS_Mouse>
inactive

>  <ActivityOutcome_CPDBAS_SingleCellCall>
inactive

>  <ActivityOutcome_CPDBAS_MultiCellCall>
inactive

>  <ActivityOutcome_CPDBAS_MultiCellCall_Details>
multisex inactive; multispecies inactive

>  <ChemicalPage_URL>
http://potency.berkeley.edu/chempages/ADIPAMIDE.html

$$$$



 18 19  0  0  0  0  0  0  0  0999 V2000
    3.2539   -3.5908    0.0000 C   0  0  0  0  0  0  0  0  0  0  0  0
    3.2539   -2.2609    0.0000 C   0  0  0  0  0  0  0  0  0  0  0  0
    4.4065   -1.5871    0.0000 C   0  0  0  0  0  0  0  0  0  0  0  0
    4.4065   -4.2469    0.0000 O   0  0  0  0  0  0  0  0  0  0  0  0
    2.1190   -4.2469    0.0000 N   0  0  0  0  0  0  0  0  0  0  0  0
    1.9683   -0.2660    0.0000 O   0  0  0  0  0  0  0  0  0  0  0  0
    0.6738    0.0000    0.0000 C   0  0  0  0  0  0  0  0  0  0  0  0
    2.1190   -1.5871    0.0000 C   0  0  0  0  0  0  0  0  0  0  0  0
    0.0000   -1.1526    0.0000 C   0  0  0  0  0  0  0  0  0  0  0  0
    0.8955   -2.1279    0.0000 C   0  0  0  0  0  0  0  0  0  0  0  0
    5.7098   -3.5908    0.0000 O   0  0  0  0  0  0  0  0  0  0  0  0
    7.0043   -3.8568    0.0000 C   0  0  0  0  0  0  0  0  0  0  0  0
    5.5591   -2.2609    0.0000 C   0  0  0  0  0  0  0  0  0  0  0  0
    7.6781   -2.7042    0.0000 C   0  0  0  0  0  0  0  0  0  0  0  0
    6.7827   -1.7112    0.0000 C   0  0  0  0  0  0  0  0  0  0  0  0
    7.5540   -5.0803    0.0000 N   0  3  0  0  0  0  0  0  0  0  0  0
    6.7649   -6.1532    0.0000 O   0  5  0  0  0  0  0  0  0  0  0  0
    8.8662   -5.2045    0.0000 O   0  0  0  0  0  0  0  0  0  0  0  0
  1  2  1  0  0  0  0
  1  5  1  0  0  0  0
  1  4  2  0  0  0  0
  2  3  2  0  0  0  0
  2  8  1  0  0  0  0
  3 13  1  0  0  0  0
  6  7  1  0  0  0  0
  6  8  1  0  0  0  0
  7  9  2  0  0  0  0
  8 10  2  0  0  0  0
  9 10  1  0  0  0  0
 11 12  1  0  0  0  0
 11 13  1  0  0  0  0
 12 14  2  0  0  0  0
 12 16  1  0  0  0  0
 13 15  2  0  0  0  0
 14 15  1  0  0  0  0
 16 17  1  0  0  0  0
 16 18  2  0  0  0  0
M  END
>  <DSSTox_RID>
20033

>  <DSSTox_CID>
33

>  <DSSTox_Generic_SID>
20033

>  <DSSTox_FileID>
34_CPDBAS_v5d

>  <STRUCTURE_Formula>
C11H8N2O5

>  <STRUCTURE_MolecularWeight>
248.1916

>  <STRUCTURE_ChemicalType>
defined organic

>  <STRUCTURE_TestedForm_DefinedOrganic>
parent

>  <STRUCTURE_Shown>
tested chemical

>  <TestSubstance_ChemicalName>
AF-2

>  <TestSubstance_CASRN>
3688-53-7

>  <TestSubstance_Description>
single chemical compound

>  <ChemicalNote>
stereochem

>  <STRUCTURE_ChemicalName_IUPAC>
(2Z)-2-(furan-2-yl)-3-(5-nitrofuran-2-yl)prop-2-enamide

>  <STRUCTURE_SMILES>
O=C(N)\C(C2=CC=CO2)=C/C1=CC=C([N+]([O-])=O)O1

>  <STRUCTURE_Parent_SMILES>
O=C(N)\C(C2=CC=CO2)=C/C1=CC=C([N+]([O-])=O)O1

>  <STRUCTURE_InChI>
InChI=1/C11H8N2O5/c12-11(14)8(9-2-1-5-17-9)6-7-3-4-10(18-7)13(15)16/h1-6H,(H2,12,14)/b8-6-/f/h12H2

>  <STRUCTURE_InChIKey>
LYAHJFZLDZDIOH-SDXKRDFODJ

>  <StudyType>
Carcinogenicity

>  <Endpoint>
TD50; Tumor Target Sites

>  <Species>
rat; mouse; hamster

>  <ActivityOutcome_CPDBAS_Mutagenicity>
active

>  <TD50_Rat_mg>
29.4

>  <TD50_Rat_mmol>
0.118

>  <ActivityScore_CPDBAS_Rat>
35

>  <TD50_Rat_Note>
TD50 is harmonic mean of more than one positive test; greater than ten-fold variation among TD50 values for positive results

>  <TargetSites_Rat_Male>
mammary gland

>  <TargetSites_Rat_Female>
mammary gland

>  <ActivityOutcome_CPDBAS_Rat>
active

>  <TD50_Mouse_mg>
131

>  <TD50_Mouse_mmol>
0.528

>  <ActivityScore_CPDBAS_Mouse>
31

>  <TD50_Mouse_Note>
TD50 is harmonic mean of more than one positive test; greater than ten-fold variation among TD50 values for positive results

>  <TargetSites_Mouse_Male>
stomach

>  <TargetSites_Mouse_Female>
stomach

>  <ActivityOutcome_CPDBAS_Mouse>
active

>  <TD50_Hamster_mg>
164

>  <TD50_Hamster_mmol>
0.661

>  <ActivityScore_CPDBAS_Hamster>
30

>  <TD50_Hamster_Note>
TD50 is harmonic mean of more than one positive test

>  <TargetSites_Hamster_Male>
esophagus; stomach

>  <TargetSites_Hamster_Female>
stomach

>  <ActivityOutcome_CPDBAS_Hamster>
active

>  <ActivityOutcome_CPDBAS_SingleCellCall>
active

>  <ActivityOutcome_CPDBAS_MultiCellCall>
active

>  <ActivityOutcome_CPDBAS_MultiCellCall_Details>
multisite active; multisex active; multispecies active

>  <Note_CPDBAS>
structure modified v5b

>  <ChemicalPage_URL>
http://potency.berkeley.edu/chempages/AF-2.html

$$$$



 25 29  0  0  1  0  0  0  0  0999 V2000
    5.7454   -4.6535    0.0000 C   0  0  0  0  0  0  0  0  0  0  0  0
    4.5929   -3.9863    0.0000 C   0  0  0  0  0  0  0  0  0  0  0  0
    4.5929   -2.6604    0.0000 C   0  0  0  0  0  0  0  0  0  0  0  0
    3.4403   -1.9931    0.0000 C   0  0  0  0  0  0  0  0  0  0  0  0
    2.2878   -2.6604    0.0000 C   0  0  0  0  0  0  0  0  0  0  0  0
    2.2878   -3.9863    0.0000 C   0  0  0  0  0  0  0  0  0  0  0  0
    3.4403   -4.6535    0.0000 O   0  0  0  0  0  0  0  0  0  0  0  0
    1.1352   -4.6535    0.0000 O   0  0  0  0  0  0  0  0  0  0  0  0
    1.2999   -1.7678    0.0000 C   0  0  2  0  0  0  0  0  0  0  0  0
    0.0000   -2.0451    0.0000 O   0  0  0  0  0  0  0  0  0  0  0  0
    1.8458   -0.5546    0.0000 C   0  0  0  0  0  0  0  0  0  0  0  0
    3.1630   -0.6933    0.0000 C   0  0  0  0  0  0  0  0  0  0  0  0
    5.7454   -1.9931    0.0000 C   0  0  0  0  0  0  0  0  0  0  0  0
    6.8980   -2.6604    0.0000 C   0  0  0  0  0  0  0  0  0  0  0  0
    6.8980   -3.9863    0.0000 C   0  0  0  0  0  0  0  0  0  0  0  0
    7.8859   -4.8788    0.0000 O   0  0  0  0  0  0  0  0  0  0  0  0
    7.3399   -6.0921    0.0000 C   0  0  1  0  0  0  0  0  0  0  0  0
    6.0227   -5.9534    0.0000 C   0  0  1  0  0  0  0  0  0  0  0  0
    5.4768   -7.1666    0.0000 C   0  0  0  0  0  0  0  0  0  0  0  0
    6.4647   -8.0592    0.0000 C   0  0  0  0  0  0  0  0  0  0  0  0
    7.6172   -7.3919    0.0000 O   0  0  0  0  0  0  0  0  0  0  0  0
    4.6969   -5.8148    0.0000 H   0  0  0  0  0  0  0  0  0  0  0  0
    8.6658   -6.2307    0.0000 H   0  0  0  0  0  0  0  0  0  0  0  0
    5.7454   -0.6673    0.0000 O   0  0  0  0  0  0  0  0  0  0  0  0
    6.8980    0.0000    0.0000 C   0  0  0  0  0  0  0  0  0  0  0  0
  1  2  1  0  0  0  0
  1 15  2  0  0  0  0
  1 18  1  0  0  0  0
  2  3  2  0  0  0  0
  2  7  1  0  0  0  0
  3  4  1  0  0  0  0
  3 13  1  0  0  0  0
  4  5  2  0  0  0  0
  4 12  1  0  0  0  0
  5  6  1  0  0  0  0
  5  9  1  0  0  0  0
  6  7  1  0  0  0  0
  6  8  2  0  0  0  0
  9 10  1  6  0  0  0
  9 11  1  0  0  0  0
 11 12  1  0  0  0  0
 13 14  2  0  0  0  0
 13 24  1  0  0  0  0
 14 15  1  0  0  0  0
 15 16  1  0  0  0  0
 16 17  1  0  0  0  0
 17 18  1  0  0  0  0
 17 21  1  0  0  0  0
 17 23  1  1  0  0  0
 18 19  1  0  0  0  0
 18 22  1  6  0  0  0
 19 20  2  0  0  0  0
 20 21  1  0  0  0  0
 24 25  1  0  0  0  0
M  END
>  <DSSTox_RID>
20034

>  <DSSTox_CID>
34

>  <DSSTox_Generic_SID>
20034

>  <DSSTox_FileID>
35_CPDBAS_v5d

>  <STRUCTURE_Formula>
C17H14O6

>  <STRUCTURE_MolecularWeight>
314.294

>  <STRUCTURE_ChemicalType>
defined organic

>  <STRUCTURE_TestedForm_DefinedOrganic>
parent

>  <STRUCTURE_Shown>
tested chemical

>  <TestSubstance_ChemicalName>
Aflatoxicol

>  <TestSubstance_CASRN>
29611-03-8

>  <TestSubstance_Description>
single chemical compound

>  <ChemicalNote>
stereochem

>  <STRUCTURE_ChemicalName_IUPAC>
(1R,6aS,9aS)-1-hydroxy-4-(methyloxy)-2,3,6a,9a-tetrahydrocyclopenta[c]furo[3',2':4,5]furo[2,3-h]chromen-11(1H)-one

>  <STRUCTURE_SMILES>
O=C(O2)C([C@@H](CC3)O)=C3C1=C2C4=C(O[C@@]5([H])[C@]([H])4C=CO5)C=C1OC

>  <STRUCTURE_Parent_SMILES>
O=C(O2)C([C@@H](CC3)O)=C3C1=C2C4=C(O[C@@]5([H])[C@]([H])4C=CO5)C=C1OC

>  <STRUCTURE_InChI>
InChI=1/C17H14O6/c1-20-10-6-11-14(8-4-5-21-17(8)22-11)15-13(10)7-2-3-9(18)12(7)16(19)23-15/h4-6,8-9,17-18H,2-3H2,1H3/t8-,9+,17-/m0/s1

>  <STRUCTURE_InChIKey>
WYIWLDSPNDMZIT-BTKFHORUBM

>  <StudyType>
Carcinogenicity

>  <Endpoint>
TD50; Tumor Target Sites

>  <Species>
rat

>  <ActivityOutcome_CPDBAS_Mutagenicity>
active

>  <TD50_Rat_mg>
0.00247

>  <TD50_Rat_mmol>
0.00000786

>  <ActivityScore_CPDBAS_Rat>
78

>  <TargetSites_Rat_Male>
liver

>  <ActivityOutcome_CPDBAS_Rat>
active

>  <ActivityOutcome_CPDBAS_SingleCellCall>
active

>  <ChemicalPage_URL>
http://potency.berkeley.edu/chempages/AFLATOXICOL.html

$$$$



 23 27  0  0  0  0  0  0  0  0999 V2000
    5.4986   -3.3221    0.0000 C   0  0  0  0  0  0  0  0  0  0  0  0
    4.3531   -3.9918    0.0000 C   0  0  0  0  0  0  0  0  0  0  0  0
    3.1987   -3.3221    0.0000 C   0  0  0  0  0  0  0  0  0  0  0  0
    2.0444   -3.9918    0.0000 C   0  0  0  0  0  0  0  0  0  0  0  0
    2.0444   -5.3224    0.0000 C   0  0  0  0  0  0  0  0  0  0  0  0
    3.1987   -5.9833    0.0000 C   0  0  0  0  0  0  0  0  0  0  0  0
    4.3531   -5.3224    0.0000 O   0  0  0  0  0  0  0  0  0  0  0  0
    3.1987   -7.3139    0.0000 O   0  0  0  0  0  0  0  0  0  0  0  0
    0.7843   -5.7277    0.0000 C   0  0  0  0  0  0  0  0  0  0  0  0
    0.3701   -6.9966    0.0000 O   0  0  0  0  0  0  0  0  0  0  0  0
    0.0000   -4.6527    0.0000 C   0  0  0  0  0  0  0  0  0  0  0  0
    0.7843   -3.5776    0.0000 C   0  0  0  0  0  0  0  0  0  0  0  0
    3.1987   -1.9915    0.0000 C   0  0  0  0  0  0  0  0  0  0  0  0
    4.3531   -1.3306    0.0000 C   0  0  0  0  0  0  0  0  0  0  0  0
    5.4986   -1.9915    0.0000 C   0  0  0  0  0  0  0  0  0  0  0  0
    6.7675   -1.5861    0.0000 O   0  0  0  0  0  0  0  0  0  0  0  0
    7.5430   -2.6612    0.0000 C   0  0  3  0  0  0  0  0  0  0  0  0
    6.7675   -3.7362    0.0000 C   0  0  3  0  0  0  0  0  0  0  0  0
    7.5430   -4.8113    0.0000 C   0  0  0  0  0  0  0  0  0  0  0  0
    8.8119   -4.3971    0.0000 C   0  0  0  0  0  0  0  0  0  0  0  0
    8.8119   -3.0665    0.0000 O   0  0  0  0  0  0  0  0  0  0  0  0
    2.0444   -1.3306    0.0000 O   0  0  0  0  0  0  0  0  0  0  0  0
    2.0444    0.0000    0.0000 C   0  0  0  0  0  0  0  0  0  0  0  0
  1  2  2  0  0  0  0
  1 15  1  0  0  0  0
  1 18  1  0  0  0  0
  2  3  1  0  0  0  0
  2  7  1  0  0  0  0
  3  4  1  0  0  0  0
  3 13  2  0  0  0  0
  4  5  2  0  0  0  0
  4 12  1  0  0  0  0
  5  6  1  0  0  0  0
  5  9  1  0  0  0  0
  6  7  1  0  0  0  0
  6  8  2  0  0  0  0
  9 10  2  0  0  0  0
  9 11  1  0  0  0  0
 11 12  1  0  0  0  0
 13 14  1  0  0  0  0
 13 22  1  0  0  0  0
 14 15  2  0  0  0  0
 15 16  1  0  0  0  0
 16 17  1  0  0  0  0
 17 18  1  0  0  0  0
 17 21  1  0  0  0  0
 18 19  1  0  0  0  0
 19 20  2  0  0  0  0
 20 21  1  0  0  0  0
 22 23  1  0  0  0  0
M  END
>  <DSSTox_RID>
20035

>  <DSSTox_CID>
35

>  <DSSTox_Generic_SID>
20035

>  <DSSTox_FileID>
36_CPDBAS_v5d

>  <STRUCTURE_Formula>
C17H12O6

>  <STRUCTURE_MolecularWeight>
312.2736

>  <STRUCTURE_ChemicalType>
defined organic

>  <STRUCTURE_TestedForm_DefinedOrganic>
parent

>  <STRUCTURE_Shown>
tested chemical

>  <TestSubstance_ChemicalName>
Aflatoxin B1

>  <TestSubstance_CASRN>
1162-65-8

>  <TestSubstance_Description>
single chemical compound

>  <STRUCTURE_ChemicalName_IUPAC>
4-(methyloxy)-2,3,6a,9a-tetrahydrocyclopenta[c]furo[3',2':4,5]furo[2,3-h]chromene-1,11-dione

>  <STRUCTURE_SMILES>
C12=C3C(C4=C(C(O3)=O)C(=O)CC4)=C(C=C1OC5C2C=CO5)OC

>  <STRUCTURE_Parent_SMILES>
C12=C3C(C4=C(C(O3)=O)C(=O)CC4)=C(C=C1OC5C2C=CO5)OC

>  <STRUCTURE_InChI>
InChI=1/C17H12O6/c1-20-10-6-11-14(8-4-5-21-17(8)22-11)15-13(10)7-2-3-9(18)12(7)16(19)23-15/h4-6,8,17H,2-3H2,1H3

>  <STRUCTURE_InChIKey>
OQIQSTLJSLGHID-UHFFFAOYAB

>  <StudyType>
Carcinogenicity

>  <Endpoint>
TD50; Tumor Target Sites

>  <Species>
rat; mouse; rhesus; cynomolgus; tree shrew

>  <ActivityOutcome_CPDBAS_Mutagenicity>
active

>  <TD50_Rat_mg>
0.0032

>  <TD50_Rat_mmol>
0.0000102

>  <ActivityScore_CPDBAS_Rat>
77

>  <TD50_Rat_Note>
TD50 is harmonic mean of more than one positive test; harmonic mean of TD50 includes a value for upper 99% confidence limit from study with 100% tumor incidence but no lifetable; greater than ten-fold variation among TD50 values for positive results

>  <TargetSites_Rat_Male>
kidney; large intestine; liver

>  <TargetSites_Rat_Female>
large intestine; liver

>  <ActivityOutcome_CPDBAS_Rat>
active

>  <ActivityScore_CPDBAS_Mouse>
0

>  <TD50_Mouse_Note>
no positive results

>  <TargetSites_Mouse_Male>
no positive results

>  <TargetSites_Mouse_Female>
no positive results

>  <ActivityOutcome_CPDBAS_Mouse>
inactive

>  <TD50_Rhesus_mg>
0.0082

>  <TargetSites_Rhesus>
gall bladder; liver; vascular system

>  <TD50_Cynomolgus_mg>
0.0201

>  <TargetSites_Cynomolgus>
gall bladder; liver; vascular system

>  <TD50_Dog_Primates_Note>
Tree Shrew (TD50=0.0269; Target Sites=liver)

>  <ActivityOutcome_CPDBAS_Dog_Primates>
active

>  <ActivityOutcome_CPDBAS_SingleCellCall>
active

>  <ActivityOutcome_CPDBAS_MultiCellCall>
active

>  <ActivityOutcome_CPDBAS_MultiCellCall_Details>
multisite active; multisex active; multispecies active

>  <Note_CPDBAS>
TD50_Rat_Note modified v5a

>  <ChemicalPage_URL>
http://potency.berkeley.edu/chempages/AFLATOXIN%20B1.html

$$$$



 15 15  0  0  0  0  0  0  0  0999 V2000
    5.7597   -2.0304    0.0000 C   0  0  0  0  0  0  0  0  0  0  0  0
    1.1706   -2.0304    0.0000 C   0  0  0  0  0  0  0  0  0  0  0  0
    5.7597   -0.7148    0.0000 C   0  0  0  0  0  0  0  0  0  0  0  0
    4.6306   -2.7038    0.0000 C   0  0  0  0  0  0  0  0  0  0  0  0
    3.4807   -2.0304    0.0000 C   0  0  0  0  0  0  0  0  0  0  0  0
    0.0000   -2.7038    0.0000 O   0  0  0  0  0  0  0  0  0  0  0  0
    2.3101   -2.7038    0.0000 C   0  0  0  0  0  0  0  0  0  0  0  0
    4.6306   -0.0414    0.0000 C   0  0  0  0  0  0  0  0  0  0  0  0
    9.2094    0.0000    0.0000 C   0  0  0  0  0  0  0  0  0  0  0  0
   10.3592   -0.6526    0.0000 C   0  0  0  0  0  0  0  0  0  0  0  0
    6.9096   -2.7245    0.0000 Cl  0  0  0  0  0  0  0  0  0  0  0  0
    3.4807   -0.7148    0.0000 C   0  0  0  0  0  0  0  0  0  0  0  0
    1.1706   -0.7148    0.0000 O   0  0  0  0  0  0  0  0  0  0  0  0
    6.9096   -0.0104    0.0000 O   0  0  0  0  0  0  0  0  0  0  0  0
    8.0802   -0.6837    0.0000 C   0  0  0  0  0  0  0  0  0  0  0  0
  1  3  1  0  0  0  0
  1  4  2  0  0  0  0
  1 11  1  0  0  0  0
  2  7  1  0  0  0  0
  2  6  2  0  0  0  0
  2 13  1  0  0  0  0
  3  8  2  0  0  0  0
  3 14  1  0  0  0  0
  4  5  1  0  0  0  0
  5  7  1  0  0  0  0
  5 12  2  0  0  0  0
  8 12  1  0  0  0  0
  9 15  1  0  0  0  0
  9 10  2  0  0  0  0
 14 15  1  0  0  0  0
M  END
>  <DSSTox_RID>
20038

>  <DSSTox_CID>
38

>  <DSSTox_Generic_SID>
20038

>  <DSSTox_FileID>
39_CPDBAS_v5d

>  <STRUCTURE_Formula>
C11H11ClO3

>  <STRUCTURE_MolecularWeight>
226.6562

>  <STRUCTURE_ChemicalType>
defined organic

>  <STRUCTURE_TestedForm_DefinedOrganic>
parent

>  <STRUCTURE_Shown>
tested chemical

>  <TestSubstance_ChemicalName>
Alclofenac

>  <TestSubstance_CASRN>
22131-79-9

>  <TestSubstance_Description>
single chemical compound

>  <STRUCTURE_ChemicalName_IUPAC>
[3-chloro-4-(prop-2-en-1-yloxy)phenyl]acetic acid

>  <STRUCTURE_SMILES>
C1(OCC=C)=CC=C(CC(=O)O)C=C1Cl

>  <STRUCTURE_Parent_SMILES>
C1(OCC=C)=CC=C(CC(=O)O)C=C1Cl

>  <STRUCTURE_InChI>
InChI=1/C11H11ClO3/c1-2-5-15-10-4-3-8(6-9(10)12)7-11(13)14/h2-4,6H,1,5,7H2,(H,13,14)/f/h13H

>  <STRUCTURE_InChIKey>
ARHWPKZXBHOEEE-NDKGDYFDCL

>  <StudyType>
Carcinogenicity

>  <Endpoint>
TD50; Tumor Target Sites

>  <Species>
rat

>  <ActivityScore_CPDBAS_Rat>
0

>  <TD50_Rat_Note>
no positive results

>  <TargetSites_Rat_Male>
no positive results

>  <TargetSites_Rat_Female>
no positive results

>  <ActivityOutcome_CPDBAS_Rat>
inactive

>  <ActivityOutcome_CPDBAS_SingleCellCall>
inactive

>  <ActivityOutcome_CPDBAS_MultiCellCall>
inactive

>  <ActivityOutcome_CPDBAS_MultiCellCall_Details>
multisex inactive

>  <Note_CPDBAS>
Rat added v2a

>  <ChemicalPage_URL>
http://potency.berkeley.edu/chempages/ALCLOFENAC.html

$$$$



 12 11  0  0  0  0  0  0  0  0999 V2000
    0.8456   -0.6672    0.0000 C   0  0  0  0  0  0  0  0  0  0  0  0
    1.9938   -1.3343    0.0000 C   0  0  0  0  0  0  0  0  0  0  0  0
    3.1497   -1.9938    0.0000 C   0  0  0  0  0  0  0  0  0  0  0  0
    4.2978   -1.3343    0.0000 N   0  0  0  0  0  0  0  0  0  0  0  0
    5.4537   -1.9938    0.0000 O   0  0  0  0  0  0  0  0  0  0  0  0
    6.6019   -1.3343    0.0000 C   0  0  0  0  0  0  0  0  0  0  0  0
    6.6019    0.0000    0.0000 O   0  0  0  0  0  0  0  0  0  0  0  0
    7.7578   -1.9938    0.0000 N   0  0  0  0  0  0  0  0  0  0  0  0
    7.7578   -3.3281    0.0000 C   0  0  0  0  0  0  0  0  0  0  0  0
    1.3343   -2.4825    0.0000 S   0  0  0  0  0  0  0  0  0  0  0  0
    0.0000   -2.4825    0.0000 C   0  0  0  0  0  0  0  0  0  0  0  0
    2.6609   -0.1784    0.0000 C   0  0  0  0  0  0  0  0  0  0  0  0
  1  2  1  0  0  0  0
  2  3  1  0  0  0  0
  2 10  1  0  0  0  0
  2 12  1  0  0  0  0
  3  4  2  0  0  0  0
  4  5  1  0  0  0  0
  5  6  1  0  0  0  0
  6  7  2  0  0  0  0
  6  8  1  0  0  0  0
  8  9  1  0  0  0  0
 10 11  1  0  0  0  0
M  END
>  <DSSTox_RID>
20039

>  <DSSTox_CID>
39

>  <DSSTox_Generic_SID>
39223

>  <DSSTox_FileID>
40_CPDBAS_v5d

>  <STRUCTURE_Formula>
C7H14N2O2S

>  <STRUCTURE_MolecularWeight>
190.2633

>  <STRUCTURE_ChemicalType>
defined organic

>  <STRUCTURE_TestedForm_DefinedOrganic>
parent

>  <STRUCTURE_Shown>
tested chemical

>  <TestSubstance_ChemicalName>
Aldicarb

>  <TestSubstance_CASRN>
116-06-3

>  <TestSubstance_Description>
single chemical compound

>  <STRUCTURE_ChemicalName_IUPAC>
(1E)-2-methyl-2-(methylthio)propanal O-[(methylamino)carbonyl]oxime

>  <STRUCTURE_SMILES>
CC(C=NOC(=O)NC)(SC)C

>  <STRUCTURE_Parent_SMILES>
CC(C=NOC(=O)NC)(SC)C

>  <STRUCTURE_InChI>
InChI=1/C7H14N2O2S/c1-7(2,12-4)5-9-11-6(10)8-3/h5H,1-4H3,(H,8,10)/b9-5+/f/h8H

>  <STRUCTURE_InChIKey>
QGLZXHRNAYXIBU-RVKZGWQMDN

>  <StudyType>
Carcinogenicity

>  <Endpoint>
TD50; Tumor Target Sites

>  <Species>
rat; mouse

>  <ActivityOutcome_CPDBAS_Mutagenicity>
inactive

>  <ActivityScore_CPDBAS_Rat>
0

>  <TD50_Rat_Note>
no positive results

>  <TargetSites_Rat_Male>
no positive results

>  <TargetSites_Rat_Female>
no positive results

>  <ActivityOutcome_CPDBAS_Rat>
inactive

>  <ActivityScore_CPDBAS_Mouse>
0

>  <TD50_Mouse_Note>
no positive results

>  <TargetSites_Mouse_Male>
no positive results

>  <TargetSites_Mouse_Female>
no positive results

>  <ActivityOutcome_CPDBAS_Mouse>
inactive

>  <ActivityOutcome_CPDBAS_SingleCellCall>
inactive

>  <ActivityOutcome_CPDBAS_MultiCellCall>
inactive

>  <ActivityOutcome_CPDBAS_MultiCellCall_Details>
multisex inactive; multispecies inactive

>  <NTP_TechnicalReport>
TR 136

>  <ChemicalPage_URL>
http://potency.berkeley.edu/chempages/ALDICARB.html

$$$$



 20 23  0  0  0  0  0  0  0  0999 V2000
    4.9955    3.4985    0.0000 C   0  0  2  0  0  0  0  0  0  0  0  0
    3.6499    3.5490    0.0000 C   0  0  2  0  0  0  0  0  0  0  0  0
    4.7600    4.9114    0.0000 C   0  0  0  0  0  0  0  0  0  0  0  0
    5.9038    2.4557    0.0000 C   0  0  0  0  0  0  0  0  0  0  0  0
    6.0888    3.9190    0.0000 Cl  0  0  0  0  0  0  0  0  0  0  0  0
    2.8930    2.2539    0.0000 C   0  0  2  0  0  0  0  0  0  0  0  0
    2.1866    2.9267    0.0000 C   0  0  2  0  0  0  0  0  0  0  0  0
    4.4236    2.2539    0.0000 C   0  0  1  0  0  0  0  0  0  0  0  0
    3.8518    5.9543    0.0000 Cl  0  0  0  0  0  0  0  0  0  0  0  0
    5.7524    5.5842    0.0000 Cl  0  0  0  0  0  0  0  0  0  0  0  0
    5.2478    1.1606    0.0000 C   0  0  0  0  0  0  0  0  0  0  0  0
    6.9971    2.7921    0.0000 Cl  0  0  0  0  0  0  0  0  0  0  0  0
    1.5474    1.7493    0.0000 C   0  0  2  0  0  0  0  0  0  0  0  0
    1.8334    0.4541    0.0000 C   0  0  0  0  0  0  0  0  0  0  0  0
    0.8074    3.5995    0.0000 C   0  0  0  0  0  0  0  0  0  0  0  0
    3.7172    0.9083    0.0000 Cl  0  0  0  0  0  0  0  0  0  0  0  0
    5.1637    0.0000    0.0000 Cl  0  0  0  0  0  0  0  0  0  0  0  0
    0.0000    2.4557    0.0000 C   0  0  0  0  0  0  0  0  0  0  0  0
    2.3025    1.1604    0.0000 H   0  0  0  0  0  0  0  0  0  0  0  0
    4.1233    4.5750    0.0000 H   0  0  0  0  0  0  0  0  0  0  0  0
  2  1  1  0  0  0  0
  3  1  1  1  0  0  0
  4  1  1  0  0  0  0
  5  1  1  0  0  0  0
  6  2  1  0  0  0  0
  7  2  1  0  0  0  0
  2 20  1  1  0  0  0
  8  3  1  1  0  0  0
  9  3  1  0  0  0  0
 10  3  1  0  0  0  0
 11  4  2  0  0  0  0
 12  4  1  0  0  0  0
 13  6  1  0  0  0  0
  8  6  1  0  0  0  0
  6 19  1  1  0  0  0
 14  7  1  6  0  0  0
 15  7  1  0  0  0  0
 16  8  1  0  0  0  0
 11  8  1  0  0  0  0
 17 11  1  0  0  0  0
 18 13  1  0  0  0  0
 13 14  1  6  0  0  0
 18 15  2  0  0  0  0
M  END
>  <DSSTox_RID>
20040

>  <DSSTox_CID>
40

>  <DSSTox_Generic_SID>
20040

>  <DSSTox_FileID>
41_CPDBAS_v5d

>  <STRUCTURE_Formula>
C12H8Cl6

>  <STRUCTURE_MolecularWeight>
364.9099

>  <STRUCTURE_ChemicalType>
defined organic

>  <STRUCTURE_TestedForm_DefinedOrganic>
parent

>  <STRUCTURE_Shown>
tested chemical

>  <TestSubstance_ChemicalName>
Aldrin

>  <TestSubstance_CASRN>
309-00-2

>  <TestSubstance_Description>
single chemical compound

>  <ChemicalNote>
stereochem

>  <STRUCTURE_ChemicalName_IUPAC>
1,2,3,4,10,10-hexachloro-1,4,4a,5,8,8a-hexahydro-1,4:5,8-dimethanonaphthalene

>  <STRUCTURE_SMILES>
ClC(C(Cl)(Cl)C43Cl)(C(Cl)=C4Cl)C1C3C2C=CC1C2

>  <STRUCTURE_Parent_SMILES>
ClC(C(Cl)(Cl)C43Cl)(C(Cl)=C4Cl)C1C3C2C=CC1C2

>  <STRUCTURE_InChI>
InChI=1/C12H8Cl6/c13-8-9(14)11(16)7-5-2-1-4(3-5)6(7)10(8,15)12(11,17)18/h1-2,4-7H,3H2

>  <STRUCTURE_InChIKey>
QBYJBZPUGVGKQQ-UHFFFAOYAT

>  <StudyType>
Carcinogenicity

>  <Endpoint>
TD50; Tumor Target Sites

>  <Species>
rat; mouse

>  <ActivityOutcome_CPDBAS_Mutagenicity>
inactive

>  <ActivityScore_CPDBAS_Rat>
0

>  <TD50_Rat_Note>
no positive results

>  <TargetSites_Rat_Male>
no positive results

>  <TargetSites_Rat_Female>
no positive results

>  <ActivityOutcome_CPDBAS_Rat>
inactive

>  <TD50_Mouse_mg>
1.27

>  <TD50_Mouse_mmol>
0.00348

>  <ActivityScore_CPDBAS_Mouse>
56

>  <TD50_Mouse_Note>
TD50 is harmonic mean of more than one positive test

>  <TargetSites_Mouse_Male>
liver

>  <TargetSites_Mouse_BothSexes>
liver

>  <ActivityOutcome_CPDBAS_Mouse>
active

>  <ActivityOutcome_CPDBAS_SingleCellCall>
active

>  <NTP_TechnicalReport>
TR 21; final call in CPDB differs due to additional data

>  <ChemicalPage_URL>
http://potency.berkeley.edu/chempages/ALDRIN.html

$$$$



 11 11  0  0  0  0  0  0  0  0999 V2000
    4.2744    0.0000    0.0000 O   0  0  0  0  0  0  0  0  0  0  0  0
    3.2901   -0.8879    0.0000 C   0  0  0  0  0  0  0  0  0  0  0  0
    3.4278   -2.2095    0.0000 C   0  0  3  0  0  0  0  0  0  0  0  0
    2.2095   -2.7532    0.0000 N   0  0  0  0  0  0  0  0  0  0  0  0
    1.3216   -1.7621    0.0000 C   0  0  0  0  0  0  0  0  0  0  0  0
    0.0000   -1.9066    0.0000 O   0  0  0  0  0  0  0  0  0  0  0  0
    1.9892   -0.6126    0.0000 N   0  0  0  0  0  0  0  0  0  0  0  0
    4.5773   -2.8771    0.0000 N   0  0  0  0  0  0  0  0  0  0  0  0
    5.7336   -2.2095    0.0000 C   0  0  0  0  0  0  0  0  0  0  0  0
    5.7336   -0.8810    0.0000 O   0  0  0  0  0  0  0  0  0  0  0  0
    6.8831   -2.8771    0.0000 N   0  0  0  0  0  0  0  0  0  0  0  0
  1  2  2  0  0  0  0
  2  3  1  0  0  0  0
  2  7  1  0  0  0  0
  3  4  1  0  0  0  0
  3  8  1  0  0  0  0
  4  5  1  0  0  0  0
  5  6  2  0  0  0  0
  5  7  1  0  0  0  0
  8  9  1  0  0  0  0
  9 10  2  0  0  0  0
  9 11  1  0  0  0  0
M  END
>  <DSSTox_RID>
20043

>  <DSSTox_CID>
43

>  <DSSTox_Generic_SID>
20043

>  <DSSTox_FileID>
44_CPDBAS_v5d

>  <STRUCTURE_Formula>
C4H6N4O3

>  <STRUCTURE_MolecularWeight>
158.1164

>  <STRUCTURE_ChemicalType>
defined organic

>  <STRUCTURE_TestedForm_DefinedOrganic>
parent

>  <STRUCTURE_Shown>
tested chemical

>  <TestSubstance_ChemicalName>
Allantoin

>  <TestSubstance_CASRN>
97-59-6

>  <TestSubstance_Description>
single chemical compound

>  <STRUCTURE_ChemicalName_IUPAC>
1-(2,5-dioxoimidazolidin-4-yl)urea

>  <STRUCTURE_SMILES>
O=C1C(NC(=O)N1)NC(=O)N

>  <STRUCTURE_Parent_SMILES>
O=C1C(NC(=O)N1)NC(=O)N

>  <STRUCTURE_InChI>
InChI=1/C4H6N4O3/c5-3(10)6-1-2(9)8-4(11)7-1/h1H,(H3,5,6,10)(H2,7,8,9,11)/f/h6-8H,5H2

>  <STRUCTURE_InChIKey>
POJWUDADGALRAB-BANUENCFCI

>  <StudyType>
Carcinogenicity

>  <Endpoint>
TD50; Tumor Target Sites

>  <Species>
rat

>  <ActivityScore_CPDBAS_Rat>
0

>  <TD50_Rat_Note>
no positive results

>  <TargetSites_Rat_Male>
no positive results

>  <TargetSites_Rat_Female>
no positive results

>  <ActivityOutcome_CPDBAS_Rat>
inactive

>  <ActivityOutcome_CPDBAS_SingleCellCall>
inactive

>  <ActivityOutcome_CPDBAS_MultiCellCall>
inactive

>  <ActivityOutcome_CPDBAS_MultiCellCall_Details>
multisex inactive

>  <ChemicalPage_URL>
http://potency.berkeley.edu/chempages/ALLANTOIN.html

$$$$



  4  3  0  0  0  0  0  0  0  0999 V2000
    0.0000    0.0000    0.0000 C   0  0  0  0  0  0  0  0  0  0  0  0
    1.1513   -0.6638    0.0000 C   0  0  0  0  0  0  0  0  0  0  0  0
    2.3061    0.0000    0.0000 C   0  0  0  0  0  0  0  0  0  0  0  0
    3.4575   -0.6638    0.0000 O   0  0  0  0  0  0  0  0  0  0  0  0
  1  2  2  0  0  0  0
  2  3  1  0  0  0  0
  3  4  1  0  0  0  0
M  END
>  <DSSTox_RID>
20044

>  <DSSTox_CID>
44

>  <DSSTox_Generic_SID>
20044

>  <DSSTox_FileID>
45_CPDBAS_v5d

>  <STRUCTURE_Formula>
C3H6O

>  <STRUCTURE_MolecularWeight>
58.0791

>  <STRUCTURE_ChemicalType>
defined organic

>  <STRUCTURE_TestedForm_DefinedOrganic>
parent

>  <STRUCTURE_Shown>
tested chemical

>  <TestSubstance_ChemicalName>
Allyl alcohol

>  <TestSubstance_CASRN>
107-18-6

>  <TestSubstance_Description>
single chemical compound

>  <STRUCTURE_ChemicalName_IUPAC>
prop-2-en-1-ol

>  <STRUCTURE_SMILES>
C=CCO

>  <STRUCTURE_Parent_SMILES>
C=CCO

>  <STRUCTURE_InChI>
InChI=1/C3H6O/c1-2-3-4/h2,4H,1,3H2

>  <STRUCTURE_InChIKey>
XXROGKLTLUQVRX-UHFFFAOYAC

>  <StudyType>
Carcinogenicity

>  <Endpoint>
TD50; Tumor Target Sites

>  <Species>
rat

>  <ActivityOutcome_CPDBAS_Mutagenicity>
inactive

>  <ActivityScore_CPDBAS_Rat>
0

>  <TD50_Rat_Note>
no positive results

>  <TargetSites_Rat_Male>
no positive results

>  <TargetSites_Rat_Female>
no positive results

>  <ActivityOutcome_CPDBAS_Rat>
inactive

>  <ActivityOutcome_CPDBAS_SingleCellCall>
inactive

>  <ActivityOutcome_CPDBAS_MultiCellCall>
inactive

>  <ActivityOutcome_CPDBAS_MultiCellCall_Details>
multisex inactive

>  <Note_CPDBAS>
Mutagenicity_SAL_CPDB added v3a

>  <ChemicalPage_URL>
http://potency.berkeley.edu/chempages/ALLYL%20ALCOHOL.html

$$$$



  4  3  0  0  0  0  0  0  0  0999 V2000
    0.0000    0.0000    0.0000 C   0  0  0  0  0  0  0  0  0  0  0  0
    1.1513   -0.6638    0.0000 C   0  0  0  0  0  0  0  0  0  0  0  0
    2.3061    0.0000    0.0000 C   0  0  0  0  0  0  0  0  0  0  0  0
    3.4575   -0.6638    0.0000 Cl  0  0  0  0  0  0  0  0  0  0  0  0
  1  2  2  0  0  0  0
  2  3  1  0  0  0  0
  3  4  1  0  0  0  0
M  END
>  <DSSTox_RID>
20045

>  <DSSTox_CID>
45

>  <DSSTox_Generic_SID>
39231

>  <DSSTox_FileID>
46_CPDBAS_v5d

>  <STRUCTURE_Formula>
C3H5Cl

>  <STRUCTURE_MolecularWeight>
76.5248

>  <STRUCTURE_ChemicalType>
defined organic

>  <STRUCTURE_TestedForm_DefinedOrganic>
parent

>  <STRUCTURE_Shown>
tested chemical

>  <TestSubstance_ChemicalName>
Allyl chloride

>  <TestSubstance_CASRN>
107-05-1

>  <TestSubstance_Description>
single chemical compound

>  <STRUCTURE_ChemicalName_IUPAC>
3-chloroprop-1-ene

>  <STRUCTURE_SMILES>
C=CCCl

>  <STRUCTURE_Parent_SMILES>
C=CCCl

>  <STRUCTURE_InChI>
InChI=1/C3H5Cl/c1-2-3-4/h2H,1,3H2

>  <STRUCTURE_InChIKey>
OSDWBNJEKMUWAV-UHFFFAOYAQ

>  <StudyType>
Carcinogenicity

>  <Endpoint>
TD50; Tumor Target Sites

>  <Species>
rat; mouse

>  <ActivityOutcome_CPDBAS_Mutagenicity>
active

>  <ActivityScore_CPDBAS_Rat>
0

>  <TD50_Rat_Note>
only experiment is NCI NTP bioassay inadequate

>  <TargetSites_Rat_Male>
NTP bioassay inadequate

>  <TargetSites_Rat_Female>
NTP bioassay inadequate

>  <ActivityOutcome_CPDBAS_Rat>
unspecified

>  <ActivityScore_CPDBAS_Mouse>
0

>  <TD50_Mouse_Note>
no positive results

>  <TargetSites_Mouse_Male>
no positive results

>  <TargetSites_Mouse_Female>
no positive results

>  <ActivityOutcome_CPDBAS_Mouse>
inactive

>  <ActivityOutcome_CPDBAS_SingleCellCall>
inactive

>  <ActivityOutcome_CPDBAS_MultiCellCall>
inactive

>  <ActivityOutcome_CPDBAS_MultiCellCall_Details>
multisex inactive

>  <Note_CPDBAS>
ActivityOutcome_CPDBAS_Mouse modified v5d

>  <NTP_TechnicalReport>
TR 73

>  <ChemicalPage_URL>
http://potency.berkeley.edu/chempages/ALLYL%20CHLORIDE.html

$$$$



  8  8  0  0  0  0  0  0  0  0999 V2000
    0.0000   -1.8149    0.0000 C   0  0  0  0  0  0  0  0  0  0  0  0
    1.1485   -1.1485    0.0000 C   0  0  0  0  0  0  0  0  0  0  0  0
    2.3041   -1.8149    0.0000 C   0  0  0  0  0  0  0  0  0  0  0  0
    3.4526   -1.1485    0.0000 O   0  0  0  0  0  0  0  0  0  0  0  0
    4.6082   -1.8149    0.0000 C   0  0  0  0  0  0  0  0  0  0  0  0
    5.7567   -1.1485    0.0000 C   0  0  3  0  0  0  0  0  0  0  0  0
    6.4231    0.0000    0.0000 C   0  0  0  0  0  0  0  0  0  0  0  0
    7.0895   -1.1485    0.0000 O   0  0  0  0  0  0  0  0  0  0  0  0
  1  2  2  0  0  0  0
  2  3  1  0  0  0  0
  3  4  1  0  0  0  0
  4  5  1  0  0  0  0
  5  6  1  0  0  0  0
  6  7  1  0  0  0  0
  6  8  1  0  0  0  0
  7  8  1  0  0  0  0
M  END
>  <DSSTox_RID>
20046

>  <DSSTox_CID>
46

>  <DSSTox_Generic_SID>
39232

>  <DSSTox_FileID>
47_CPDBAS_v5d

>  <STRUCTURE_Formula>
C6H10O2

>  <STRUCTURE_MolecularWeight>
114.1424

>  <STRUCTURE_ChemicalType>
defined organic

>  <STRUCTURE_TestedForm_DefinedOrganic>
parent

>  <STRUCTURE_Shown>
tested chemical

>  <TestSubstance_ChemicalName>
Allyl glycidyl ether

>  <TestSubstance_CASRN>
106-92-3

>  <TestSubstance_Description>
single chemical compound

>  <STRUCTURE_ChemicalName_IUPAC>
2-[(allyloxy)methyl]oxirane

>  <STRUCTURE_SMILES>
C=CCOCC1CO1

>  <STRUCTURE_Parent_SMILES>
C=CCOCC1CO1

>  <STRUCTURE_InChI>
InChI=1/C6H10O2/c1-2-3-7-4-6-5-8-6/h2,6H,1,3-5H2

>  <STRUCTURE_InChIKey>
LSWYGACWGAICNM-UHFFFAOYAR

>  <StudyType>
Carcinogenicity

>  <Endpoint>
TD50; Tumor Target Sites

>  <Species>
rat; mouse

>  <ActivityOutcome_CPDBAS_Mutagenicity>
active

>  <ActivityScore_CPDBAS_Rat>
0

>  <TD50_Rat_Note>
no positive results

>  <TargetSites_Rat_Male>
no positive results

>  <TargetSites_Rat_Female>
no positive results

>  <ActivityOutcome_CPDBAS_Rat>
inactive

>  <TD50_Mouse_mg>
182

>  <TD50_Mouse_mmol>
1.59

>  <ActivityScore_CPDBAS_Mouse>
26

>  <TargetSites_Mouse_Male>
nasal cavity

>  <TargetSites_Mouse_Female>
no positive results

>  <ActivityOutcome_CPDBAS_Mouse>
active

>  <ActivityOutcome_CPDBAS_SingleCellCall>
active

>  <NTP_TechnicalReport>
TR 376

>  <ChemicalPage_URL>
http://potency.berkeley.edu/chempages/ALLYL%20GLYCIDYL%20ETHER.html

$$$$



  6  5  0  0  0  0  0  0  0  0999 V2000
    0.0000   -0.6684    0.0000 C   0  0  0  0  0  0  0  0  0  0  0  0
    1.1525   -1.3311    0.0000 C   0  0  0  0  0  0  0  0  0  0  0  0
    2.3050   -0.6684    0.0000 C   0  0  0  0  0  0  0  0  0  0  0  0
    3.4575   -1.3311    0.0000 N   0  0  0  0  0  0  0  0  0  0  0  0
    4.6099   -0.6684    0.0000 C   0  0  0  0  0  0  0  0  0  0  0  0
    5.7624    0.0000    0.0000 S   0  0  0  0  0  0  0  0  0  0  0  0
  1  2  2  0  0  0  0
  2  3  1  0  0  0  0
  3  4  1  0  0  0  0
  4  5  2  0  0  0  0
  5  6  2  0  0  0  0
M  END
>  <DSSTox_RID>
20047

>  <DSSTox_CID>
47

>  <DSSTox_Generic_SID>
20047

>  <DSSTox_FileID>
48_CPDBAS_v5d

>  <STRUCTURE_Formula>
C4H5NS

>  <STRUCTURE_MolecularWeight>
99.1542

>  <STRUCTURE_ChemicalType>
defined organic

>  <STRUCTURE_TestedForm_DefinedOrganic>
parent

>  <STRUCTURE_Shown>
tested chemical

>  <TestSubstance_ChemicalName>
Allyl isothiocyanate

>  <TestSubstance_CASRN>
57-06-7

>  <TestSubstance_Description>
single chemical compound

>  <STRUCTURE_ChemicalName_IUPAC>
3-isothiocyanatoprop-1-ene

>  <STRUCTURE_SMILES>
C=CCN=C=S

>  <STRUCTURE_Parent_SMILES>
C=CCN=C=S

>  <STRUCTURE_InChI>
InChI=1/C4H5NS/c1-2-3-5-4-6/h2H,1,3H2

>  <STRUCTURE_InChIKey>
ZOJBYZNEUISWFT-UHFFFAOYAS

>  <StudyType>
Carcinogenicity

>  <Endpoint>
TD50; Tumor Target Sites

>  <Species>
rat; mouse

>  <ActivityOutcome_CPDBAS_Mutagenicity>
active

>  <TD50_Rat_mg>
96

>  <TD50_Rat_mmol>
0.968

>  <ActivityScore_CPDBAS_Rat>
26

>  <TargetSites_Rat_Male>
urinary bladder

>  <TargetSites_Rat_Female>
no positive results

>  <ActivityOutcome_CPDBAS_Rat>
active

>  <ActivityScore_CPDBAS_Mouse>
0

>  <TD50_Mouse_Note>
no positive results

>  <TargetSites_Mouse_Male>
no positive results

>  <TargetSites_Mouse_Female>
no positive results

>  <ActivityOutcome_CPDBAS_Mouse>
inactive

>  <ActivityOutcome_CPDBAS_SingleCellCall>
active

>  <NTP_TechnicalReport>
TR 234

>  <ChemicalPage_URL>
http://potency.berkeley.edu/chempages/ALLYL%20ISOTHIOCYANATE.html

$$$$



 10  9  0  0  0  0  0  0  0  0999 V2000
    4.6087    0.0000    0.0000 O   0  0  0  0  0  0  0  0  0  0  0  0
    4.6087   -1.3318    0.0000 C   0  0  0  0  0  0  0  0  0  0  0  0
    5.7629   -1.9936    0.0000 C   0  0  0  0  0  0  0  0  0  0  0  0
    6.9171   -1.3318    0.0000 C   0  0  0  0  0  0  0  0  0  0  0  0
    6.9171    0.0000    0.0000 C   0  0  0  0  0  0  0  0  0  0  0  0
    8.0713   -1.9936    0.0000 C   0  0  0  0  0  0  0  0  0  0  0  0
    3.4626   -1.9936    0.0000 O   0  0  0  0  0  0  0  0  0  0  0  0
    2.3084   -1.3318    0.0000 C   0  0  0  0  0  0  0  0  0  0  0  0
    1.1542   -1.9936    0.0000 C   0  0  0  0  0  0  0  0  0  0  0  0
    0.0000   -1.3318    0.0000 C   0  0  0  0  0  0  0  0  0  0  0  0
  1  2  2  0  0  0  0
  2  3  1  0  0  0  0
  2  7  1  0  0  0  0
  3  4  1  0  0  0  0
  4  5  1  0  0  0  0
  4  6  1  0  0  0  0
  7  8  1  0  0  0  0
  8  9  1  0  0  0  0
  9 10  2  0  0  0  0
M  END
>  <DSSTox_RID>
20048

>  <DSSTox_CID>
48

>  <DSSTox_Generic_SID>
39233

>  <DSSTox_FileID>
49_CPDBAS_v5d

>  <STRUCTURE_Formula>
C8H14O2

>  <STRUCTURE_MolecularWeight>
142.1956

>  <STRUCTURE_ChemicalType>
defined organic

>  <STRUCTURE_TestedForm_DefinedOrganic>
parent

>  <STRUCTURE_Shown>
tested chemical

>  <TestSubstance_ChemicalName>
Allyl isovalerate

>  <TestSubstance_CASRN>
2835-39-4

>  <TestSubstance_Description>
single chemical compound

>  <STRUCTURE_ChemicalName_IUPAC>
allyl 3-methylbutanoate

>  <STRUCTURE_SMILES>
O=C(CC(C)C)OCC=C

>  <STRUCTURE_Parent_SMILES>
O=C(CC(C)C)OCC=C

>  <STRUCTURE_InChI>
InChI=1/C8H14O2/c1-4-5-10-8(9)6-7(2)3/h4,7H,1,5-6H2,2-3H3

>  <STRUCTURE_InChIKey>
HOMAGVUCNZNWBC-UHFFFAOYAF

>  <StudyType>
Carcinogenicity

>  <Endpoint>
TD50; Tumor Target Sites

>  <Species>
rat; mouse

>  <ActivityOutcome_CPDBAS_Mutagenicity>
inactive

>  <TD50_Rat_mg>
123

>  <TD50_Rat_mmol>
0.865

>  <ActivityScore_CPDBAS_Rat>
26

>  <TargetSites_Rat_Male>
hematopoietic system

>  <TargetSites_Rat_Female>
no positive results

>  <ActivityOutcome_CPDBAS_Rat>
active

>  <TD50_Mouse_mg>
62.8

>  <TD50_Mouse_mmol>
0.442

>  <ActivityScore_CPDBAS_Mouse>
32

>  <TargetSites_Mouse_Male>
no positive results

>  <TargetSites_Mouse_Female>
hematopoietic system

>  <ActivityOutcome_CPDBAS_Mouse>
active

>  <ActivityOutcome_CPDBAS_SingleCellCall>
active

>  <ActivityOutcome_CPDBAS_MultiCellCall>
active

>  <ActivityOutcome_CPDBAS_MultiCellCall_Details>
multisex active; multispecies active

>  <NTP_TechnicalReport>
TR 253

>  <ChemicalPage_URL>
http://potency.berkeley.edu/chempages/ALLYL%20ISOVALERATE.html

$$$$



  9  8  0  0  0  0  0  0  0  0999 V2000
    4.6080   -1.9953    0.0000 C   0  0  0  0  0  0  0  0  0  0  0  0
    3.4560   -2.6588    0.0000 C   0  0  0  0  0  0  0  0  0  0  0  0
    2.3040   -1.9953    0.0000 N   0  0  0  0  0  0  0  0  0  0  0  0
    2.3040   -0.6635    0.0000 C   0  0  0  0  0  0  0  0  0  0  0  0
    3.4560    0.0000    0.0000 N   0  0  0  0  0  0  0  0  0  0  0  0
    1.1520    0.0000    0.0000 O   0  0  0  0  0  0  0  0  0  0  0  0
    1.1520   -2.6588    0.0000 N   0  0  0  0  0  0  0  0  0  0  0  0
    0.0000   -1.9953    0.0000 O   0  0  0  0  0  0  0  0  0  0  0  0
    4.6080   -0.6635    0.0000 C   0  0  0  0  0  0  0  0  0  0  0  0
  1  2  1  0  0  0  0
  1  9  2  0  0  0  0
  2  3  1  0  0  0  0
  3  4  1  0  0  0  0
  3  7  1  0  0  0  0
  4  5  1  0  0  0  0
  4  6  2  0  0  0  0
  7  8  2  0  0  0  0
M  END
>  <DSSTox_RID>
20049

>  <DSSTox_CID>
49

>  <DSSTox_Generic_SID>
20049

>  <DSSTox_FileID>
50_CPDBAS_v5d

>  <STRUCTURE_Formula>
C4H7N3O2

>  <STRUCTURE_MolecularWeight>
129.1182

>  <STRUCTURE_ChemicalType>
defined organic

>  <STRUCTURE_TestedForm_DefinedOrganic>
parent

>  <STRUCTURE_Shown>
tested chemical

>  <TestSubstance_ChemicalName>
1-Allyl-1-nitrosourea

>  <TestSubstance_CASRN>
760-56-5

>  <TestSubstance_Description>
single chemical compound

>  <STRUCTURE_ChemicalName_IUPAC>
1-nitroso-1-prop-2-en-1-ylurea

>  <STRUCTURE_SMILES>
NC(=O)N(CC=C)N=O

>  <STRUCTURE_Parent_SMILES>
NC(=O)N(CC=C)N=O

>  <STRUCTURE_InChI>
InChI=1/C4H7N3O2/c1-2-3-7(6-9)4(5)8/h2H,1,3H2,(H2,5,8)/f/h5H2

>  <STRUCTURE_InChIKey>
WBBDVRPSJSJSPC-GLFQYTTQCA

>  <StudyType>
Carcinogenicity

>  <Endpoint>
TD50; Tumor Target Sites

>  <Species>
rat

>  <TD50_Rat_mg>
0.341

>  <TD50_Rat_mmol>
0.00264

>  <ActivityScore_CPDBAS_Rat>
52

>  <TD50_Rat_Note>
TD50 is harmonic mean of more than one positive test

>  <TargetSites_Rat_Male>
large intestine; lung; stomach

>  <TargetSites_Rat_Female>
mammary gland; stomach; uterus

>  <ActivityOutcome_CPDBAS_Rat>
active

>  <ActivityOutcome_CPDBAS_SingleCellCall>
active

>  <ActivityOutcome_CPDBAS_MultiCellCall>
active

>  <ActivityOutcome_CPDBAS_MultiCellCall_Details>
multisite active; multisex active

>  <ChemicalPage_URL>
http://potency.berkeley.edu/chempages/1-ALLYL-1-NITROSOUREA.html

$$$$



 19 21  0  0  0  0  0  0  0  0999 V2000
    3.4588   -5.3212    0.0000 O   0  0  0  0  0  0  0  0  0  0  0  0
    3.4588   -3.9909    0.0000 C   0  0  0  0  0  0  0  0  0  0  0  0
    4.6036   -3.3298    0.0000 C   0  0  0  0  0  0  0  0  0  0  0  0
    5.7566   -3.9909    0.0000 C   0  0  0  0  0  0  0  0  0  0  0  0
    6.9095   -3.3298    0.0000 C   0  0  0  0  0  0  0  0  0  0  0  0
    6.9095   -1.9995    0.0000 C   0  0  0  0  0  0  0  0  0  0  0  0
    5.7566   -1.3303    0.0000 C   0  0  0  0  0  0  0  0  0  0  0  0
    4.6036   -1.9995    0.0000 C   0  0  0  0  0  0  0  0  0  0  0  0
    3.4588   -1.3303    0.0000 C   0  0  0  0  0  0  0  0  0  0  0  0
    3.4588    0.0000    0.0000 O   0  0  0  0  0  0  0  0  0  0  0  0
    2.3059   -1.9995    0.0000 C   0  0  0  0  0  0  0  0  0  0  0  0
    2.3059   -3.3298    0.0000 C   0  0  0  0  0  0  0  0  0  0  0  0
    1.1529   -3.9909    0.0000 C   0  0  0  0  0  0  0  0  0  0  0  0
    0.0000   -3.3298    0.0000 C   0  0  0  0  0  0  0  0  0  0  0  0
    0.0000   -1.9995    0.0000 C   0  0  0  0  0  0  0  0  0  0  0  0
    1.1529   -1.3303    0.0000 C   0  0  0  0  0  0  0  0  0  0  0  0
    5.7566    0.0000    0.0000 Br  0  0  0  0  0  0  0  0  0  0  0  0
    8.0624   -3.9909    0.0000 Br  0  0  0  0  0  0  0  0  0  0  0  0
    5.7566   -5.3212    0.0000 N   0  0  0  0  0  0  0  0  0  0  0  0
  1  2  2  0  0  0  0
  2  3  1  0  0  0  0
  2 12  1  0  0  0  0
  3  4  2  0  0  0  0
  3  8  1  0  0  0  0
  4  5  1  0  0  0  0
  4 19  1  0  0  0  0
  5  6  2  0  0  0  0
  5 18  1  0  0  0  0
  6  7  1  0  0  0  0
  7  8  2  0  0  0  0
  7 17  1  0  0  0  0
  8  9  1  0  0  0  0
  9 10  2  0  0  0  0
  9 11  1  0  0  0  0
 11 12  2  0  0  0  0
 11 16  1  0  0  0  0
 12 13  1  0  0  0  0
 13 14  2  0  0  0  0
 14 15  1  0  0  0  0
 15 16  2  0  0  0  0
M  END
>  <DSSTox_RID>
20052

>  <DSSTox_CID>
52

>  <DSSTox_Generic_SID>
39235

>  <DSSTox_FileID>
53_CPDBAS_v5d

>  <STRUCTURE_Formula>
C14H7Br2NO2

>  <STRUCTURE_MolecularWeight>
381.0189

>  <STRUCTURE_ChemicalType>
defined organic

>  <STRUCTURE_TestedForm_DefinedOrganic>
parent

>  <STRUCTURE_Shown>
tested chemical

>  <TestSubstance_ChemicalName>
1-Amino-2,4-dibromoanthraquinone

>  <TestSubstance_CASRN>
81-49-2

>  <TestSubstance_Description>
single chemical compound

>  <STRUCTURE_ChemicalName_IUPAC>
1-amino-2,4-dibromo-9,10-anthraquinone

>  <STRUCTURE_SMILES>
O=C1C2=C(C(=CC(=C2C(=O)C3=C1C=CC=C3)Br)Br)N

>  <STRUCTURE_Parent_SMILES>
O=C1C2=C(C(=CC(=C2C(=O)C3=C1C=CC=C3)Br)Br)N

>  <STRUCTURE_InChI>
InChI=1/C14H7Br2NO2/c15-8-5-9(16)12(17)11-10(8)13(18)6-3-1-2-4-7(6)14(11)19/h1-5H,17H2

>  <STRUCTURE_InChIKey>
ZINRVIQBCHAZMM-UHFFFAOYAC

>  <StudyType>
Carcinogenicity

>  <Endpoint>
TD50; Tumor Target Sites

>  <Species>
rat; mouse

>  <ActivityOutcome_CPDBAS_Mutagenicity>
active

>  <TD50_Rat_mg>
46

>  <TD50_Rat_mmol>
0.121

>  <ActivityScore_CPDBAS_Rat>
35

>  <TD50_Rat_Note>
TD50 is harmonic mean of more than one positive test

>  <TargetSites_Rat_Male>
kidney; large intestine; liver; urinary bladder

>  <TargetSites_Rat_Female>
kidney; large intestine; liver; urinary bladder

>  <ActivityOutcome_CPDBAS_Rat>
active

>  <TD50_Mouse_mg>
477

>  <TD50_Mouse_mmol>
1.25

>  <ActivityScore_CPDBAS_Mouse>
27

>  <TD50_Mouse_Note>
TD50 is harmonic mean of more than one positive test

>  <TargetSites_Mouse_Male>
liver; lung; stomach

>  <TargetSites_Mouse_Female>
liver; lung; stomach

>  <ActivityOutcome_CPDBAS_Mouse>
active

>  <ActivityOutcome_CPDBAS_SingleCellCall>
active

>  <ActivityOutcome_CPDBAS_MultiCellCall>
active

>  <ActivityOutcome_CPDBAS_MultiCellCall_Details>
multisite active; multisex active; multispecies active

>  <NTP_TechnicalReport>
TR 383

>  <ChemicalPage_URL>
http://potency.berkeley.edu/chempages/1-AMINO-2,4-DIBROMOANTHRAQUINONE.html

$$$$



 14 14  0  0  0  0  0  0  0  0999 V2000
    5.9919    0.0000    0.0000 N   0  0  0  0  0  0  0  0  0  0  0  0
    5.3210   -1.1555    0.0000 C   0  0  0  0  0  0  0  0  0  0  0  0
    5.9919   -2.3110    0.0000 C   0  0  0  0  0  0  0  0  0  0  0  0
    5.3210   -3.4572    0.0000 C   0  0  0  0  0  0  0  0  0  0  0  0
    3.9977   -3.4572    0.0000 C   0  0  0  0  0  0  0  0  0  0  0  0
    3.3268   -2.3110    0.0000 C   0  0  0  0  0  0  0  0  0  0  0  0
    3.9977   -1.1555    0.0000 C   0  0  0  0  0  0  0  0  0  0  0  0
    1.9942   -2.3110    0.0000 N   0  0  0  0  0  0  0  0  0  0  0  0
    1.3326   -3.4572    0.0000 C   0  0  0  0  0  0  0  0  0  0  0  0
    1.9942   -4.6127    0.0000 O   0  0  0  0  0  0  0  0  0  0  0  0
    0.0000   -3.4572    0.0000 C   0  0  0  0  0  0  0  0  0  0  0  0
    7.3245   -2.3110    0.0000 O   0  0  0  0  0  0  0  0  0  0  0  0
    7.9861   -3.4572    0.0000 C   0  0  0  0  0  0  0  0  0  0  0  0
    9.3187   -3.4572    0.0000 C   0  0  0  0  0  0  0  0  0  0  0  0
  1  2  1  0  0  0  0
  2  3  2  0  0  0  0
  2  7  1  0  0  0  0
  3  4  1  0  0  0  0
  3 12  1  0  0  0  0
  4  5  2  0  0  0  0
  5  6  1  0  0  0  0
  6  7  2  0  0  0  0
  6  8  1  0  0  0  0
  8  9  1  0  0  0  0
  9 10  2  0  0  0  0
  9 11  1  0  0  0  0
 12 13  1  0  0  0  0
 13 14  1  0  0  0  0
M  END
>  <DSSTox_RID>
20053

>  <DSSTox_CID>
53

>  <DSSTox_Generic_SID>
20053

>  <DSSTox_FileID>
54_CPDBAS_v5d

>  <STRUCTURE_Formula>
C10H14N2O2

>  <STRUCTURE_MolecularWeight>
194.2304

>  <STRUCTURE_ChemicalType>
defined organic

>  <STRUCTURE_TestedForm_DefinedOrganic>
parent

>  <STRUCTURE_Shown>
tested chemical

>  <TestSubstance_ChemicalName>
3-Amino-4-ethoxyacetanilide

>  <TestSubstance_CASRN>
17026-81-2

>  <TestSubstance_Description>
single chemical compound

>  <STRUCTURE_ChemicalName_IUPAC>
N-[3-amino-4-(ethyloxy)phenyl]acetamide

>  <STRUCTURE_SMILES>
NC1=C(C=CC(=C1)NC(=O)C)OCC

>  <STRUCTURE_Parent_SMILES>
NC1=C(C=CC(=C1)NC(=O)C)OCC

>  <STRUCTURE_InChI>
InChI=1/C10H14N2O2/c1-3-14-10-5-4-8(6-9(10)11)12-7(2)13/h4-6H,3,11H2,1-2H3,(H,12,13)/f/h12H

>  <STRUCTURE_InChIKey>
XTXFAVHDQCHWCS-XWKXFZRBCV

>  <StudyType>
Carcinogenicity

>  <Endpoint>
TD50; Tumor Target Sites

>  <Species>
rat; mouse

>  <ActivityOutcome_CPDBAS_Mutagenicity>
active

>  <ActivityScore_CPDBAS_Rat>
0

>  <TD50_Rat_Note>
no positive results

>  <TargetSites_Rat_Male>
no positive results

>  <TargetSites_Rat_Female>
no positive results

>  <ActivityOutcome_CPDBAS_Rat>
inactive

>  <TD50_Mouse_mg>
2070

>  <TD50_Mouse_mmol>
10.7

>  <ActivityScore_CPDBAS_Mouse>
17

>  <TargetSites_Mouse_Male>
thyroid gland

>  <TargetSites_Mouse_Female>
no positive results

>  <ActivityOutcome_CPDBAS_Mouse>
active

>  <ActivityOutcome_CPDBAS_SingleCellCall>
active

>  <NTP_TechnicalReport>
TR 112

>  <ChemicalPage_URL>
http://potency.berkeley.edu/chempages/3-AMINO-4-ETHOXYACETANILIDE.html

$$$$



 20 21  0  0  0  0  0  0  0  0999 V2000
   14.3944   -3.3539    0.0000 N   0  0  0  0  0  0  0  0  0  0  0  0
   13.1277   -2.9365    0.0000 C   0  0  0  0  0  0  0  0  0  0  0  0
   12.8542   -1.6410    0.0000 N   0  0  0  0  0  0  0  0  0  0  0  0
   12.1345   -3.8289    0.0000 N   0  0  0  0  0  0  0  0  0  0  0  0
   10.8822   -3.4259    0.0000 C   0  0  0  0  0  0  0  0  0  0  0  0
    9.8026   -4.2032    0.0000 N   0  0  0  0  0  0  0  0  0  0  0  0
    8.7230   -3.4259    0.0000 C   0  0  0  0  0  0  0  0  0  0  0  0
    7.4563   -3.8289    0.0000 C   0  0  0  0  0  0  0  0  0  0  0  0
    6.4775   -2.9365    0.0000 S   0  0  0  0  0  0  0  0  0  0  0  0
    5.2108   -3.3539    0.0000 C   0  0  0  0  0  0  0  0  0  0  0  0
    4.2176   -2.4615    0.0000 C   0  0  0  0  0  0  0  0  0  0  0  0
    2.9509   -2.8789    0.0000 N   0  0  0  0  0  0  0  0  0  0  0  0
    1.9720   -1.9864    0.0000 C   0  0  0  0  0  0  0  0  0  0  0  0
    0.6621   -2.2599    0.0000 N   0  0  0  0  0  0  0  0  0  0  0  0
    0.0000   -1.1084    0.0000 S   0  0  0  0  0  0  0  0  0  0  0  0
    0.8925   -0.1152    0.0000 N   0  0  0  0  0  0  0  0  0  0  0  0
    2.1016   -0.6621    0.0000 C   0  0  0  0  0  0  0  0  0  0  0  0
    3.2531    0.0000    0.0000 N   0  0  0  0  0  0  0  0  0  0  0  0
    9.1405   -2.1592    0.0000 C   0  0  0  0  0  0  0  0  0  0  0  0
   10.4648   -2.1592    0.0000 S   0  0  0  0  0  0  0  0  0  0  0  0
  1  2  2  0  0  0  0
  2  3  1  0  0  0  0
  2  4  1  0  0  0  0
  4  5  1  0  0  0  0
  5  6  2  0  0  0  0
  5 20  1  0  0  0  0
  6  7  1  0  0  0  0
  7  8  1  0  0  0  0
  7 19  2  0  0  0  0
  8  9  1  0  0  0  0
  9 10  1  0  0  0  0
 10 11  1  0  0  0  0
 11 12  1  0  0  0  0
 12 13  1  0  0  0  0
 13 14  2  0  0  0  0
 13 17  1  0  0  0  0
 14 15  1  0  0  0  0
 15 16  1  0  0  0  0
 16 17  2  0  0  0  0
 17 18  1  0  0  0  0
 19 20  1  0  0  0  0
M  END
>  <DSSTox_RID>
20056

>  <DSSTox_CID>
56

>  <DSSTox_Generic_SID>
39236

>  <DSSTox_FileID>
57_CPDBAS_v5d

>  <STRUCTURE_Formula>
C9H14N8S3

>  <STRUCTURE_MolecularWeight>
330.4561

>  <STRUCTURE_ChemicalType>
defined organic

>  <STRUCTURE_TestedForm_DefinedOrganic>
parent

>  <STRUCTURE_Shown>
tested chemical

>  <TestSubstance_ChemicalName>
3-Amino-4-[2-[(2-guanidinothiazol-4-yl)methylthio], ethylamino]-1,2,5-thiadiazole

>  <TestSubstance_CASRN>
78441-84-6

>  <TestSubstance_Description>
single chemical compound

>  <ChemicalNote>
BL-6341

>  <STRUCTURE_ChemicalName_IUPAC>
1-{4-[({2-[(4-amino-1,2,5-thiadiazol-3-yl)amino]ethyl}sulfanyl)methyl]-1,3-thiazol-2-yl}guanidine

>  <STRUCTURE_SMILES>
N=C(N)NC1=NC(CSCCNC2=NSN=C2N)=CS1

>  <STRUCTURE_Parent_SMILES>
N=C(N)NC1=NC(CSCCNC2=NSN=C2N)=CS1

>  <STRUCTURE_InChI>
InChI=1/C9H14N8S3/c10-6-7(17-20-16-6)13-1-2-18-3-5-4-19-9(14-5)15-8(11)12/h4H,1-3H2,(H2,10,16)(H,13,17)(H4,11,12,14,15)/f/h11,13,15H,10,12H2

>  <STRUCTURE_InChIKey>
MOMKQYRYLQUFMV-GVMYFUFNCD

>  <StudyType>
Carcinogenicity

>  <Endpoint>
TD50; Tumor Target Sites

>  <Species>
rat

>  <TD50_Rat_mg>
4990

>  <TD50_Rat_mmol>
15.1

>  <ActivityScore_CPDBAS_Rat>
14

>  <TD50_Rat_Note>
TD50 is harmonic mean of more than one positive test

>  <TargetSites_Rat_Male>
stomach

>  <TargetSites_Rat_Female>
stomach

>  <ActivityOutcome_CPDBAS_Rat>
active

>  <ActivityOutcome_CPDBAS_SingleCellCall>
active

>  <ActivityOutcome_CPDBAS_MultiCellCall>
active

>  <ActivityOutcome_CPDBAS_MultiCellCall_Details>
multisex active

>  <Note_CPDBAS>
Rat added v2a; CPDB lists HCl complex in some instances in tables but referenced study for this chemical does not specify HCl complex - parent is assumed correct

>  <ChemicalPage_URL>
http://potency.berkeley.edu/chempages/3-AMINO-4-[2-[(2-GUANIDINOTHIAZOL-4-YL)METHYLTHIO].html

$$$$



 18 20  0  0  0  0  0  0  0  0999 V2000
    4.6526   -4.6047    0.0000 O   0  0  0  0  0  0  0  0  0  0  0  0
    3.9902   -3.4555    0.0000 C   0  0  0  0  0  0  0  0  0  0  0  0
    4.6526   -2.2984    0.0000 C   0  0  0  0  0  0  0  0  0  0  0  0
    5.9853   -2.2984    0.0000 C   0  0  0  0  0  0  0  0  0  0  0  0
    6.6477   -1.1492    0.0000 C   0  0  0  0  0  0  0  0  0  0  0  0
    5.9853    0.0000    0.0000 C   0  0  0  0  0  0  0  0  0  0  0  0
    4.6526    0.0000    0.0000 C   0  0  0  0  0  0  0  0  0  0  0  0
    3.9902   -1.1492    0.0000 C   0  0  0  0  0  0  0  0  0  0  0  0
    2.6575   -1.1492    0.0000 C   0  0  0  0  0  0  0  0  0  0  0  0
    1.9951    0.0000    0.0000 O   0  0  0  0  0  0  0  0  0  0  0  0
    1.9951   -2.2984    0.0000 C   0  0  0  0  0  0  0  0  0  0  0  0
    2.6575   -3.4555    0.0000 C   0  0  0  0  0  0  0  0  0  0  0  0
    1.9951   -4.6047    0.0000 C   0  0  0  0  0  0  0  0  0  0  0  0
    0.6624   -4.6047    0.0000 C   0  0  0  0  0  0  0  0  0  0  0  0
    0.0000   -3.4555    0.0000 C   0  0  0  0  0  0  0  0  0  0  0  0
    0.6624   -2.2984    0.0000 C   0  0  0  0  0  0  0  0  0  0  0  0
    7.9804   -1.1492    0.0000 C   0  0  0  0  0  0  0  0  0  0  0  0
    6.6477   -3.4555    0.0000 N   0  0  0  0  0  0  0  0  0  0  0  0
  1  2  2  0  0  0  0
  2  3  1  0  0  0  0
  2 12  1  0  0  0  0
  3  4  2  0  0  0  0
  3  8  1  0  0  0  0
  4  5  1  0  0  0  0
  4 18  1  0  0  0  0
  5  6  2  0  0  0  0
  5 17  1  0  0  0  0
  6  7  1  0  0  0  0
  7  8  2  0  0  0  0
  8  9  1  0  0  0  0
  9 10  2  0  0  0  0
  9 11  1  0  0  0  0
 11 12  2  0  0  0  0
 11 16  1  0  0  0  0
 12 13  1  0  0  0  0
 13 14  2  0  0  0  0
 14 15  1  0  0  0  0
 15 16  2  0  0  0  0
M  END
>  <DSSTox_RID>
20057

>  <DSSTox_CID>
57

>  <DSSTox_Generic_SID>
20057

>  <DSSTox_FileID>
58_CPDBAS_v5d

>  <STRUCTURE_Formula>
C15H11NO2

>  <STRUCTURE_MolecularWeight>
237.2533

>  <STRUCTURE_ChemicalType>
defined organic

>  <STRUCTURE_TestedForm_DefinedOrganic>
parent

>  <STRUCTURE_Shown>
tested chemical

>  <TestSubstance_ChemicalName>
1-Amino-2-methylanthraquinone

>  <TestSubstance_CASRN>
82-28-0

>  <TestSubstance_Description>
single chemical compound

>  <ChemicalNote>
C.I. 60700

>  <STRUCTURE_ChemicalName_IUPAC>
1-amino-2-methylanthracene-9,10-dione

>  <STRUCTURE_SMILES>
O=C1C2=C(C(=CC=C2C(=O)C3=C1C=CC=C3)C)N

>  <STRUCTURE_Parent_SMILES>
O=C1C2=C(C(=CC=C2C(=O)C3=C1C=CC=C3)C)N

>  <STRUCTURE_InChI>
InChI=1/C15H11NO2/c1-8-6-7-11-12(13(8)16)15(18)10-5-3-2-4-9(10)14(11)17/h2-7H,16H2,1H3

>  <STRUCTURE_InChIKey>
ZLCUIOWQYBYEBG-UHFFFAOYAP

>  <StudyType>
Carcinogenicity

>  <Endpoint>
TD50; Tumor Target Sites

>  <Species>
rat; mouse

>  <ActivityOutcome_CPDBAS_Mutagenicity>
active

>  <TD50_Rat_mg>
59.2

>  <TD50_Rat_mmol>
0.25

>  <ActivityScore_CPDBAS_Rat>
32

>  <TD50_Rat_Note>
TD50 is harmonic mean of more than one positive test

>  <TargetSites_Rat_Male>
kidney; liver

>  <TargetSites_Rat_Female>
liver

>  <ActivityOutcome_CPDBAS_Rat>
active

>  <TD50_Mouse_mg>
174

>  <TD50_Mouse_mmol>
0.733

>  <ActivityScore_CPDBAS_Mouse>
30

>  <TargetSites_Mouse_Male>
no positive results

>  <TargetSites_Mouse_Female>
liver

>  <ActivityOutcome_CPDBAS_Mouse>
active

>  <ActivityOutcome_CPDBAS_SingleCellCall>
active

>  <ActivityOutcome_CPDBAS_MultiCellCall>
active

>  <ActivityOutcome_CPDBAS_MultiCellCall_Details>
multisite active; multisex active; multispecies active

>  <NTP_TechnicalReport>
TR 111

>  <ChemicalPage_URL>
http://potency.berkeley.edu/chempages/1-AMINO-2-METHYLANTHRAQUINONE.html

$$$$



 14 15  0  0  0  0  0  0  0  0999 V2000
    2.3652   -3.2915    0.0000 O   0  0  0  0  0  0  0  0  0  0  0  0
    1.1511   -2.7519    0.0000 C   0  0  0  0  0  0  0  0  0  0  0  0
    1.2950   -1.4299    0.0000 N   0  0  0  0  0  0  0  0  0  0  0  0
    2.5900   -1.1511    0.0000 N   0  0  0  0  0  0  0  0  0  0  0  0
    3.2555   -2.3022    0.0000 C   0  0  0  0  0  0  0  0  0  0  0  0
    4.5865   -2.4461    0.0000 C   0  0  0  0  0  0  0  0  0  0  0  0
    5.4768   -1.4569    0.0000 O   0  0  0  0  0  0  0  0  0  0  0  0
    6.6908   -1.9965    0.0000 C   0  0  0  0  0  0  0  0  0  0  0  0
    6.5469   -3.3184    0.0000 C   0  0  0  0  0  0  0  0  0  0  0  0
    5.2430   -3.5972    0.0000 C   0  0  0  0  0  0  0  0  0  0  0  0
    7.8419   -1.3310    0.0000 N   0  3  0  0  0  0  0  0  0  0  0  0
    7.8419    0.0000    0.0000 O   0  0  0  0  0  0  0  0  0  0  0  0
    8.9931   -1.9965    0.0000 O   0  5  0  0  0  0  0  0  0  0  0  0
    0.0000   -3.4174    0.0000 N   0  0  0  0  0  0  0  0  0  0  0  0
  1  2  1  0  0  0  0
  1  5  1  0  0  0  0
  2  3  2  0  0  0  0
  2 14  1  0  0  0  0
  3  4  1  0  0  0  0
  4  5  2  0  0  0  0
  5  6  1  0  0  0  0
  6  7  1  0  0  0  0
  6 10  2  0  0  0  0
  7  8  1  0  0  0  0
  8  9  2  0  0  0  0
  8 11  1  0  0  0  0
  9 10  1  0  0  0  0
 11 12  2  0  0  0  0
 11 13  1  0  0  0  0
M  END
>  <DSSTox_RID>
20058

>  <DSSTox_CID>
58

>  <DSSTox_Generic_SID>
20058

>  <DSSTox_FileID>
59_CPDBAS_v5d

>  <STRUCTURE_Formula>
C6H4N4O4

>  <STRUCTURE_MolecularWeight>
196.122

>  <STRUCTURE_ChemicalType>
defined organic

>  <STRUCTURE_TestedForm_DefinedOrganic>
parent

>  <STRUCTURE_Shown>
tested chemical

>  <TestSubstance_ChemicalName>
2-Amino-5-(5-nitro-2-furyl)-1,3,4-oxadiazole

>  <TestSubstance_CASRN>
3775-55-1

>  <TestSubstance_Description>
single chemical compound

>  <STRUCTURE_ChemicalName_IUPAC>
5-(5-nitrofuran-2-yl)-1,3,4-oxadiazol-2-amine

>  <STRUCTURE_SMILES>
O1C(=NN=C1C2OC(=CC=2)[N+](=O)[O-])N

>  <STRUCTURE_Parent_SMILES>
O1C(=NN=C1C2OC(=CC=2)[N+](=O)[O-])N

>  <STRUCTURE_InChI>
InChI=1/C6H4N4O4/c7-6-9-8-5(14-6)3-1-2-4(13-3)10(11)12/h1-2H,(H2,7,9)/f/h7H2

>  <STRUCTURE_InChIKey>
VTWQUFUBSCXPOW-IAUQMDSZCD

>  <StudyType>
Carcinogenicity

>  <Endpoint>
TD50; Tumor Target Sites

>  <Species>
rat

>  <TD50_Rat_mg>
3.67

>  <TD50_Rat_mmol>
0.0187

>  <ActivityScore_CPDBAS_Rat>
44

>  <TargetSites_Rat_Female>
kidney; lung; mammary gland; stomach

>  <ActivityOutcome_CPDBAS_Rat>
active

>  <ActivityOutcome_CPDBAS_SingleCellCall>
active

>  <ActivityOutcome_CPDBAS_MultiCellCall>
active

>  <ActivityOutcome_CPDBAS_MultiCellCall_Details>
multisite active

>  <ChemicalPage_URL>
http://potency.berkeley.edu/chempages/2-AMINO-5-(5-NITRO-2-FURYL)-1,3,4-OXADIAZOLE.html

$$$$



 14 15  0  0  0  0  0  0  0  0999 V2000
    8.4233   -3.5294    0.0000 N   0  0  0  0  0  0  0  0  0  0  0  0
    7.5389   -2.5523    0.0000 C   0  0  0  0  0  0  0  0  0  0  0  0
    6.2248   -2.6870    0.0000 S   0  0  0  0  0  0  0  0  0  0  0  0
    5.6857   -1.4825    0.0000 C   0  0  0  0  0  0  0  0  0  0  0  0
    4.3970   -1.2045    0.0000 C   0  0  0  0  0  0  0  0  0  0  0  0
    3.4957   -2.1985    0.0000 O   0  0  0  0  0  0  0  0  0  0  0  0
    2.2743   -1.4320    0.0000 C   0  0  0  0  0  0  0  0  0  0  0  0
    1.0698   -1.9626    0.0000 N   0  3  0  0  0  0  0  0  0  0  0  0
    0.0000   -1.1877    0.0000 O   0  5  0  0  0  0  0  0  0  0  0  0
    0.9266   -3.2767    0.0000 O   0  0  0  0  0  0  0  0  0  0  0  0
    2.5523   -0.1348    0.0000 C   0  0  0  0  0  0  0  0  0  0  0  0
    3.8579    0.0000    0.0000 C   0  0  0  0  0  0  0  0  0  0  0  0
    6.6713   -0.5981    0.0000 N   0  0  0  0  0  0  0  0  0  0  0  0
    7.8168   -1.2551    0.0000 N   0  0  0  0  0  0  0  0  0  0  0  0
  1  2  1  0  0  0  0
  2  3  1  0  0  0  0
  2 14  2  0  0  0  0
  3  4  1  0  0  0  0
  4  5  1  0  0  0  0
  4 13  2  0  0  0  0
  5  6  1  0  0  0  0
  5 12  2  0  0  0  0
  6  7  1  0  0  0  0
  7  8  1  0  0  0  0
  7 11  2  0  0  0  0
  8  9  1  0  0  0  0
  8 10  2  0  0  0  0
 11 12  1  0  0  0  0
 13 14  1  0  0  0  0
M  END
>  <DSSTox_RID>
20059

>  <DSSTox_CID>
59

>  <DSSTox_Generic_SID>
20059

>  <DSSTox_FileID>
60_CPDBAS_v5d

>  <STRUCTURE_Formula>
C6H4N4O3S

>  <STRUCTURE_MolecularWeight>
212.1826

>  <STRUCTURE_ChemicalType>
defined organic

>  <STRUCTURE_TestedForm_DefinedOrganic>
parent

>  <STRUCTURE_Shown>
tested chemical

>  <TestSubstance_ChemicalName>
2-Amino-5-(5-nitro-2-furyl)-1,3,4-thiadiazole

>  <TestSubstance_CASRN>
712-68-5

>  <TestSubstance_Description>
single chemical compound

>  <STRUCTURE_ChemicalName_IUPAC>
5-(5-nitrofuran-2-yl)-1,3,4-thiadiazol-2-amine

>  <STRUCTURE_SMILES>
NC1=NN=C(C2=CC=C([N+]([O-])=O)O2)S1

>  <STRUCTURE_Parent_SMILES>
NC1=NN=C(C2=CC=C([N+]([O-])=O)O2)S1

>  <STRUCTURE_InChI>
InChI=1/C6H4N4O3S/c7-6-9-8-5(14-6)3-1-2-4(13-3)10(11)12/h1-2H,(H2,7,9)/f/h7H2

>  <STRUCTURE_InChIKey>
SXZZHGJWUBJKHH-IAUQMDSZCG

>  <StudyType>
Carcinogenicity

>  <Endpoint>
TD50; Tumor Target Sites

>  <Species>
rat

>  <TD50_Rat_mg>
0.662

>  <TD50_Rat_mmol>
0.00312

>  <ActivityScore_CPDBAS_Rat>
52

>  <TargetSites_Rat_Female>
kidney; lung; mammary gland; stomach

>  <ActivityOutcome_CPDBAS_Rat>
active

>  <ActivityOutcome_CPDBAS_SingleCellCall>
active

>  <ActivityOutcome_CPDBAS_MultiCellCall>
active

>  <ActivityOutcome_CPDBAS_MultiCellCall_Details>
multisite active

>  <ChemicalPage_URL>
http://potency.berkeley.edu/chempages/2-AMINO-5-(5-NITRO-2-FURYL)-1,3,4-THIADIAZOLE.html

$$$$



 14 15  0  0  0  0  0  0  0  0999 V2000
    5.7002   -2.7618    0.0000 C   0  0  0  0  0  0  0  0  0  0  0  0
    6.4855   -1.6853    0.0000 N   0  0  0  0  0  0  0  0  0  0  0  0
    7.7473   -2.1001    0.0000 C   0  0  0  0  0  0  0  0  0  0  0  0
    7.7473   -3.4236    0.0000 S   0  0  0  0  0  0  0  0  0  0  0  0
    6.4855   -3.8383    0.0000 C   0  0  0  0  0  0  0  0  0  0  0  0
    8.8238   -1.3147    0.0000 N   0  0  0  0  0  0  0  0  0  0  0  0
    4.3678   -2.7618    0.0000 C   0  0  0  0  0  0  0  0  0  0  0  0
    3.5825   -3.8383    0.0000 C   0  0  0  0  0  0  0  0  0  0  0  0
    2.3207   -3.4236    0.0000 C   0  0  0  0  0  0  0  0  0  0  0  0
    2.3207   -2.1001    0.0000 C   0  0  0  0  0  0  0  0  0  0  0  0
    3.5825   -1.6853    0.0000 O   0  0  0  0  0  0  0  0  0  0  0  0
    1.2442   -1.3147    0.0000 N   0  3  0  0  0  0  0  0  0  0  0  0
    0.0000   -1.7912    0.0000 O   0  5  0  0  0  0  0  0  0  0  0  0
    1.4471    0.0000    0.0000 O   0  0  0  0  0  0  0  0  0  0  0  0
  1  2  1  0  0  0  0
  1  5  2  0  0  0  0
  1  7  1  0  0  0  0
  2  3  2  0  0  0  0
  3  4  1  0  0  0  0
  3  6  1  0  0  0  0
  4  5  1  0  0  0  0
  7  8  2  0  0  0  0
  7 11  1  0  0  0  0
  8  9  1  0  0  0  0
  9 10  2  0  0  0  0
 10 11  1  0  0  0  0
 10 12  1  0  0  0  0
 12 13  1  0  0  0  0
 12 14  2  0  0  0  0
M  END
>  <DSSTox_RID>
20060

>  <DSSTox_CID>
60

>  <DSSTox_Generic_SID>
39237

>  <DSSTox_FileID>
61_CPDBAS_v5d

>  <STRUCTURE_Formula>
C7H5N3O3S

>  <STRUCTURE_MolecularWeight>
211.1948

>  <STRUCTURE_ChemicalType>
defined organic

>  <STRUCTURE_TestedForm_DefinedOrganic>
parent

>  <STRUCTURE_Shown>
tested chemical

>  <TestSubstance_ChemicalName>
2-Amino-4-(5-nitro-2-furyl)thiazole

>  <TestSubstance_CASRN>
38514-71-5

>  <TestSubstance_Description>
single chemical compound

>  <STRUCTURE_ChemicalName_IUPAC>
4-(5-nitrofuran-2-yl)-1,3-thiazol-2-amine

>  <STRUCTURE_SMILES>
NC1=NC(C2=CC=C([N+]([O-])=O)O2)=CS1

>  <STRUCTURE_Parent_SMILES>
NC1=NC(C2=CC=C([N+]([O-])=O)O2)=CS1

>  <STRUCTURE_InChI>
InChI=1/C7H5N3O3S/c8-7-9-4(3-14-7)5-1-2-6(13-5)10(11)12/h1-3H,(H2,8,9)/f/h8H2

>  <STRUCTURE_InChIKey>
ZAVLMIGIVYJYMU-FSHFIPFOCT

>  <StudyType>
Carcinogenicity

>  <Endpoint>
TD50; Tumor Target Sites

>  <Species>
rat; mouse

>  <ActivityOutcome_CPDBAS_Mutagenicity>
active

>  <TD50_Rat_mg>
5.85

>  <TD50_Rat_mmol>
0.0277

>  <ActivityScore_CPDBAS_Rat>
42

>  <TargetSites_Rat_Female>
stomach; urinary bladder

>  <ActivityOutcome_CPDBAS_Rat>
active

>  <TD50_Mouse_mg>
7.87

>  <TD50_Mouse_mmol>
0.0373

>  <ActivityScore_CPDBAS_Mouse>
44

>  <TargetSites_Mouse_Female>
stomach

>  <ActivityOutcome_CPDBAS_Mouse>
active

>  <ActivityOutcome_CPDBAS_SingleCellCall>
active

>  <ActivityOutcome_CPDBAS_MultiCellCall>
active

>  <ActivityOutcome_CPDBAS_MultiCellCall_Details>
multisite active; multispecies active

>  <ChemicalPage_URL>
http://potency.berkeley.edu/chempages/2-AMINO-4-(5-NITRO-2-FURYL)THIAZOLE.html

$$$$



 16 17  0  0  0  0  0  0  0  0999 V2000
    0.0000   -7.5449    0.0000 O   0  0  0  0  0  0  0  0  0  0  0  0
    0.4042   -6.3035    0.0000 N   0  0  0  0  0  0  0  0  0  0  0  0
    1.7130   -6.3035    0.0000 C   0  0  0  0  0  0  0  0  0  0  0  0
    2.1172   -7.5449    0.0000 N   0  0  0  0  0  0  0  0  0  0  0  0
    1.0586   -8.3148    0.0000 C   0  0  0  0  0  0  0  0  0  0  0  0
    1.0586   -9.6236    0.0000 N   0  0  0  0  0  0  0  0  0  0  0  0
    2.4829   -5.2449    0.0000 C   0  0  0  0  0  0  0  0  0  0  0  0
    3.8109   -5.2545    0.0000 C   0  0  0  0  0  0  0  0  0  0  0  0
    4.8310   -3.9649    0.0000 C   0  0  0  0  0  0  0  0  0  0  0  0
    4.7637   -2.6561    0.0000 O   0  0  0  0  0  0  0  0  0  0  0  0
    5.9859   -2.1846    0.0000 C   0  0  0  0  0  0  0  0  0  0  0  0
    6.8135   -3.2047    0.0000 C   0  0  0  0  0  0  0  0  0  0  0  0
    6.1014   -4.3017    0.0000 C   0  0  0  0  0  0  0  0  0  0  0  0
    6.3227   -0.9239    0.0000 N   0  3  0  0  0  0  0  0  0  0  0  0
    7.5930   -0.5870    0.0000 O   0  0  0  0  0  0  0  0  0  0  0  0
    5.3988    0.0000    0.0000 O   0  5  0  0  0  0  0  0  0  0  0  0
  1  2  1  0  0  0  0
  1  5  1  0  0  0  0
  2  3  2  0  0  0  0
  3  4  1  0  0  0  0
  3  7  1  0  0  0  0
  4  5  2  0  0  0  0
  5  6  1  0  0  0  0
  7  8  2  0  0  0  0
  8  9  1  0  0  0  0
  9 10  1  0  0  0  0
  9 13  2  0  0  0  0
 10 11  1  0  0  0  0
 11 12  2  0  0  0  0
 11 14  1  0  0  0  0
 12 13  1  0  0  0  0
 14 15  2  0  0  0  0
 14 16  1  0  0  0  0
M  END
>  <DSSTox_RID>
20061

>  <DSSTox_CID>
61

>  <DSSTox_Generic_SID>
20061

>  <DSSTox_FileID>
62_CPDBAS_v5d

>  <STRUCTURE_Formula>
C8H6N4O4

>  <STRUCTURE_MolecularWeight>
222.1598

>  <STRUCTURE_ChemicalType>
defined organic

>  <STRUCTURE_TestedForm_DefinedOrganic>
parent

>  <STRUCTURE_Shown>
tested chemical

>  <TestSubstance_ChemicalName>
trans-5-Amino-3[2-(5-nitro-2-furyl)vinyl]-1,2,4-oxadiazole

>  <TestSubstance_CASRN>
28754-68-9

>  <TestSubstance_Description>
single chemical compound

>  <ChemicalNote>
stereochem

>  <STRUCTURE_ChemicalName_IUPAC>
3-[(E)-2-(5-nitrofuran-2-yl)ethenyl]-1,2,4-oxadiazol-5-amine

>  <STRUCTURE_SMILES>
NC1=NC(/C=C/C2=CC=C([N+]([O-])=O)O2)=NO1

>  <STRUCTURE_Parent_SMILES>
NC1=NC(/C=C/C2=CC=C([N+]([O-])=O)O2)=NO1

>  <STRUCTURE_InChI>
InChI=1/C8H6N4O4/c9-8-10-6(11-16-8)3-1-5-2-4-7(15-5)12(13)14/h1-4H,(H2,9,10,11)/b3-1+/f/h9H2

>  <STRUCTURE_InChIKey>
RMZNNIOKNRDECR-OYGOROAMDP

>  <StudyType>
Carcinogenicity

>  <Endpoint>
TD50; Tumor Target Sites

>  <Species>
mouse

>  <TD50_Mouse_mg>
112

>  <TD50_Mouse_mmol>
0.504

>  <ActivityScore_CPDBAS_Mouse>
32

>  <TD50_Mouse_Note>
TD50 is harmonic mean of more than one positive test

>  <TargetSites_Mouse_Male>
hematopoietic system; stomach

>  <TargetSites_Mouse_Female>
hematopoietic system; stomach

>  <ActivityOutcome_CPDBAS_Mouse>
active

>  <ActivityOutcome_CPDBAS_SingleCellCall>
active

>  <ActivityOutcome_CPDBAS_MultiCellCall>
active

>  <ActivityOutcome_CPDBAS_MultiCellCall_Details>
multisite active; multisex active

>  <ChemicalPage_URL>
http://potency.berkeley.edu/chempages/trans-5-AMINO-3[2-(5-NITRO-2-FURYL)VINYL]-1,2,4-OX.html

$$$$



 11 11  0  0  0  0  0  0  0  0999 V2000
    0.0000   -3.4525    0.0000 O   0  0  0  0  0  0  0  0  0  0  0  0
    0.6642   -2.3037    0.0000 N   0  3  0  0  0  0  0  0  0  0  0  0
    1.9925   -2.3037    0.0000 C   0  0  0  0  0  0  0  0  0  0  0  0
    2.6567   -1.1488    0.0000 C   0  0  0  0  0  0  0  0  0  0  0  0
    3.9910   -1.1488    0.0000 C   0  0  0  0  0  0  0  0  0  0  0  0
    4.6552   -2.3037    0.0000 C   0  0  0  0  0  0  0  0  0  0  0  0
    3.9910   -3.4525    0.0000 C   0  0  0  0  0  0  0  0  0  0  0  0
    2.6567   -3.4525    0.0000 C   0  0  0  0  0  0  0  0  0  0  0  0
    5.9835   -2.3037    0.0000 O   0  0  0  0  0  0  0  0  0  0  0  0
    4.6552    0.0000    0.0000 N   0  0  0  0  0  0  0  0  0  0  0  0
    0.0000   -1.1488    0.0000 O   0  5  0  0  0  0  0  0  0  0  0  0
  1  2  2  0  0  0  0
  2  3  1  0  0  0  0
  2 11  1  0  0  0  0
  3  4  2  0  0  0  0
  3  8  1  0  0  0  0
  4  5  1  0  0  0  0
  5  6  2  0  0  0  0
  5 10  1  0  0  0  0
  6  7  1  0  0  0  0
  6  9  1  0  0  0  0
  7  8  2  0  0  0  0
M  END
>  <DSSTox_RID>
20062

>  <DSSTox_CID>
62

>  <DSSTox_Generic_SID>
20062

>  <DSSTox_FileID>
63_CPDBAS_v5d

>  <STRUCTURE_Formula>
C6H6N2O3

>  <STRUCTURE_MolecularWeight>
154.1234

>  <STRUCTURE_ChemicalType>
defined organic

>  <STRUCTURE_TestedForm_DefinedOrganic>
parent

>  <STRUCTURE_Shown>
tested chemical

>  <TestSubstance_ChemicalName>
2-Amino-4-nitrophenol

>  <TestSubstance_CASRN>
99-57-0

>  <TestSubstance_Description>
single chemical compound

>  <STRUCTURE_ChemicalName_IUPAC>
2-amino-4-nitrophenol

>  <STRUCTURE_SMILES>
O=[N+](C1=CC(=C(C=C1)O)N)[O-]

>  <STRUCTURE_Parent_SMILES>
O=[N+](C1=CC(=C(C=C1)O)N)[O-]

>  <STRUCTURE_InChI>
InChI=1/C6H6N2O3/c7-5-3-4(8(10)11)1-2-6(5)9/h1-3,9H,7H2

>  <STRUCTURE_InChIKey>
VLZVIIYRNMWPSN-UHFFFAOYAN

>  <StudyType>
Carcinogenicity

>  <Endpoint>
TD50; Tumor Target Sites

>  <Species>
rat; mouse

>  <ActivityOutcome_CPDBAS_Mutagenicity>
active

>  <TD50_Rat_mg>
839

>  <TD50_Rat_mmol>
5.44

>  <ActivityScore_CPDBAS_Rat>
18

>  <TargetSites_Rat_Male>
kidney

>  <TargetSites_Rat_Female>
no positive results

>  <ActivityOutcome_CPDBAS_Rat>
active

>  <ActivityScore_CPDBAS_Mouse>
0

>  <TD50_Mouse_Note>
no positive results

>  <TargetSites_Mouse_Male>
no positive results

>  <TargetSites_Mouse_Female>
no positive results

>  <ActivityOutcome_CPDBAS_Mouse>
inactive

>  <ActivityOutcome_CPDBAS_SingleCellCall>
active

>  <NTP_TechnicalReport>
TR 339

>  <ChemicalPage_URL>
http://potency.berkeley.edu/chempages/2-AMINO-4-NITROPHENOL.html

$$$$



 11 11  0  0  0  0  0  0  0  0999 V2000
    0.0000   -3.4525    0.0000 O   0  0  0  0  0  0  0  0  0  0  0  0
    0.6642   -2.3037    0.0000 N   0  3  0  0  0  0  0  0  0  0  0  0
    1.9925   -2.3037    0.0000 C   0  0  0  0  0  0  0  0  0  0  0  0
    2.6567   -1.1488    0.0000 C   0  0  0  0  0  0  0  0  0  0  0  0
    3.9910   -1.1488    0.0000 C   0  0  0  0  0  0  0  0  0  0  0  0
    4.6552   -2.3037    0.0000 C   0  0  0  0  0  0  0  0  0  0  0  0
    3.9910   -3.4525    0.0000 C   0  0  0  0  0  0  0  0  0  0  0  0
    2.6567   -3.4525    0.0000 C   0  0  0  0  0  0  0  0  0  0  0  0
    5.9835   -2.3037    0.0000 N   0  0  0  0  0  0  0  0  0  0  0  0
    4.6552    0.0000    0.0000 O   0  0  0  0  0  0  0  0  0  0  0  0
    0.0000   -1.1488    0.0000 O   0  5  0  0  0  0  0  0  0  0  0  0
  1  2  2  0  0  0  0
  2  3  1  0  0  0  0
  2 11  1  0  0  0  0
  3  4  2  0  0  0  0
  3  8  1  0  0  0  0
  4  5  1  0  0  0  0
  5  6  2  0  0  0  0
  5 10  1  0  0  0  0
  6  7  1  0  0  0  0
  6  9  1  0  0  0  0
  7  8  2  0  0  0  0
M  END
>  <DSSTox_RID>
20063

>  <DSSTox_CID>
63

>  <DSSTox_Generic_SID>
20063

>  <DSSTox_FileID>
64_CPDBAS_v5d

>  <STRUCTURE_Formula>
C6H6N2O3

>  <STRUCTURE_MolecularWeight>
154.1234

>  <STRUCTURE_ChemicalType>
defined organic

>  <STRUCTURE_TestedForm_DefinedOrganic>
parent

>  <STRUCTURE_Shown>
tested chemical

>  <TestSubstance_ChemicalName>
2-Amino-5-nitrophenol

>  <TestSubstance_CASRN>
121-88-0

>  <TestSubstance_Description>
single chemical compound

>  <STRUCTURE_ChemicalName_IUPAC>
2-amino-5-nitrophenol

>  <STRUCTURE_SMILES>
O=[N+](C1=CC(=C(C=C1)N)O)[O-]

>  <STRUCTURE_Parent_SMILES>
O=[N+](C1=CC(=C(C=C1)N)O)[O-]

>  <STRUCTURE_InChI>
InChI=1/C6H6N2O3/c7-5-2-1-4(8(10)11)3-6(5)9/h1-3,9H,7H2

>  <STRUCTURE_InChIKey>
DOPJTDJKZNWLRB-UHFFFAOYAU

>  <StudyType>
Carcinogenicity

>  <Endpoint>
TD50; Tumor Target Sites

>  <Species>
rat; mouse

>  <ActivityOutcome_CPDBAS_Mutagenicity>
active

>  <TD50_Rat_mg>
111

>  <TD50_Rat_mmol>
0.72

>  <ActivityScore_CPDBAS_Rat>
27

>  <TargetSites_Rat_Male>
pancreas

>  <TargetSites_Rat_Female>
no positive results

>  <ActivityOutcome_CPDBAS_Rat>
active

>  <ActivityScore_CPDBAS_Mouse>
0

>  <TD50_Mouse_Note>
no positive results

>  <TargetSites_Mouse_Male>
no positive results

>  <TargetSites_Mouse_Female>
no positive results

>  <ActivityOutcome_CPDBAS_Mouse>
inactive

>  <ActivityOutcome_CPDBAS_SingleCellCall>
active

>  <NTP_TechnicalReport>
TR 334

>  <ChemicalPage_URL>
http://potency.berkeley.edu/chempages/2-AMINO-5-NITROPHENOL.html

$$$$



 11 11  0  0  0  0  0  0  0  0999 V2000
    1.9968   -4.6079    0.0000 O   0  0  0  0  0  0  0  0  0  0  0  0
    2.6577   -3.4583    0.0000 C   0  0  0  0  0  0  0  0  0  0  0  0
    1.9968   -2.3039    0.0000 C   0  0  0  0  0  0  0  0  0  0  0  0
    2.6577   -1.1543    0.0000 C   0  0  0  0  0  0  0  0  0  0  0  0
    3.9889   -1.1543    0.0000 C   0  0  0  0  0  0  0  0  0  0  0  0
    4.6544   -2.3039    0.0000 C   0  0  0  0  0  0  0  0  0  0  0  0
    3.9889   -3.4583    0.0000 C   0  0  0  0  0  0  0  0  0  0  0  0
    4.6544    0.0000    0.0000 N   0  0  0  0  0  0  0  0  0  0  0  0
    0.6656   -2.3039    0.0000 N   0  3  0  0  0  0  0  0  0  0  0  0
    0.0000   -3.4583    0.0000 O   0  0  0  0  0  0  0  0  0  0  0  0
    0.0000   -1.1543    0.0000 O   0  5  0  0  0  0  0  0  0  0  0  0
  1  2  1  0  0  0  0
  2  3  2  0  0  0  0
  2  7  1  0  0  0  0
  3  4  1  0  0  0  0
  3  9  1  0  0  0  0
  4  5  2  0  0  0  0
  5  6  1  0  0  0  0
  5  8  1  0  0  0  0
  6  7  2  0  0  0  0
  9 10  2  0  0  0  0
  9 11  1  0  0  0  0
M  END
>  <DSSTox_RID>
20064

>  <DSSTox_CID>
64

>  <DSSTox_Generic_SID>
20064

>  <DSSTox_FileID>
65_CPDBAS_v5d

>  <STRUCTURE_Formula>
C6H6N2O3

>  <STRUCTURE_MolecularWeight>
154.1234

>  <STRUCTURE_ChemicalType>
defined organic

>  <STRUCTURE_TestedForm_DefinedOrganic>
parent

>  <STRUCTURE_Shown>
tested chemical

>  <TestSubstance_ChemicalName>
4-Amino-2-nitrophenol

>  <TestSubstance_CASRN>
119-34-6

>  <TestSubstance_Description>
single chemical compound

>  <STRUCTURE_ChemicalName_IUPAC>
4-amino-2-nitrophenol

>  <STRUCTURE_SMILES>
OC1=C(C=C(C=C1)N)[N+](=O)[O-]

>  <STRUCTURE_Parent_SMILES>
OC1=C(C=C(C=C1)N)[N+](=O)[O-]

>  <STRUCTURE_InChI>
InChI=1/C6H6N2O3/c7-4-1-2-6(9)5(3-4)8(10)11/h1-3,9H,7H2

>  <STRUCTURE_InChIKey>
WHODQVWERNSQEO-UHFFFAOYAM

>  <StudyType>
Carcinogenicity

>  <Endpoint>
TD50; Tumor Target Sites

>  <Species>
rat; mouse

>  <ActivityOutcome_CPDBAS_Mutagenicity>
active

>  <TD50_Rat_mg>
309

>  <TD50_Rat_mmol>
2

>  <ActivityScore_CPDBAS_Rat>
23

>  <TargetSites_Rat_Male>
urinary bladder

>  <TargetSites_Rat_Female>
no positive results

>  <ActivityOutcome_CPDBAS_Rat>
active

>  <ActivityScore_CPDBAS_Mouse>
0

>  <TD50_Mouse_Note>
no positive results

>  <TargetSites_Mouse_Male>
no positive results

>  <TargetSites_Mouse_Female>
no positive results

>  <ActivityOutcome_CPDBAS_Mouse>
inactive

>  <ActivityOutcome_CPDBAS_SingleCellCall>
active

>  <NTP_TechnicalReport>
TR 94

>  <ChemicalPage_URL>
http://potency.berkeley.edu/chempages/4-AMINO-2-NITROPHENOL.html

$$$$



 15 16  0  0  0  0  0  0  0  0999 V2000
    3.1238   -1.1475    0.0000 C   0  0  0  0  0  0  0  0  0  0  0  0
    2.3406   -2.2222    0.0000 N   0  0  0  0  0  0  0  0  0  0  0  0
    1.0747   -1.8124    0.0000 C   0  0  0  0  0  0  0  0  0  0  0  0
    1.0747   -0.4827    0.0000 S   0  0  0  0  0  0  0  0  0  0  0  0
    2.3406   -0.0729    0.0000 C   0  0  0  0  0  0  0  0  0  0  0  0
    0.0000   -2.5956    0.0000 N   0  0  0  0  0  0  0  0  0  0  0  0
    4.4535   -1.1475    0.0000 C   0  0  0  0  0  0  0  0  0  0  0  0
    5.1184    0.0000    0.0000 C   0  0  0  0  0  0  0  0  0  0  0  0
    6.4480    0.0000    0.0000 C   0  0  0  0  0  0  0  0  0  0  0  0
    7.1129   -1.1475    0.0000 C   0  0  0  0  0  0  0  0  0  0  0  0
    6.4480   -2.3042    0.0000 C   0  0  0  0  0  0  0  0  0  0  0  0
    5.1184   -2.3042    0.0000 C   0  0  0  0  0  0  0  0  0  0  0  0
    8.4426   -1.1475    0.0000 N   0  3  0  0  0  0  0  0  0  0  0  0
    9.1074    0.0000    0.0000 O   0  5  0  0  0  0  0  0  0  0  0  0
    9.1074   -2.3042    0.0000 O   0  0  0  0  0  0  0  0  0  0  0  0
  1  2  1  0  0  0  0
  1  5  2  0  0  0  0
  1  7  1  0  0  0  0
  2  3  2  0  0  0  0
  3  4  1  0  0  0  0
  3  6  1  0  0  0  0
  4  5  1  0  0  0  0
  7  8  2  0  0  0  0
  7 12  1  0  0  0  0
  8  9  1  0  0  0  0
  9 10  2  0  0  0  0
 10 11  1  0  0  0  0
 10 13  1  0  0  0  0
 11 12  2  0  0  0  0
 13 14  1  0  0  0  0
 13 15  2  0  0  0  0
M  END
>  <DSSTox_RID>
20065

>  <DSSTox_CID>
65

>  <DSSTox_Generic_SID>
39238

>  <DSSTox_FileID>
66_CPDBAS_v5d

>  <STRUCTURE_Formula>
C9H7N3O2S

>  <STRUCTURE_MolecularWeight>
221.2332

>  <STRUCTURE_ChemicalType>
defined organic

>  <STRUCTURE_TestedForm_DefinedOrganic>
parent

>  <STRUCTURE_Shown>
tested chemical

>  <TestSubstance_ChemicalName>
2-Amino-4-(p-nitrophenyl)thiazole

>  <TestSubstance_CASRN>
2104-09-8

>  <TestSubstance_Description>
single chemical compound

>  <STRUCTURE_ChemicalName_IUPAC>
4-(4-nitrophenyl)-1,3-thiazol-2-amine

>  <STRUCTURE_SMILES>
NC1=NC(C2=CC=C([N+]([O-])=O)C=C2)=CS1

>  <STRUCTURE_Parent_SMILES>
NC1=NC(C2=CC=C([N+]([O-])=O)C=C2)=CS1

>  <STRUCTURE_InChI>
InChI=1/C9H7N3O2S/c10-9-11-8(5-15-9)6-1-3-7(4-2-6)12(13)14/h1-5H,(H2,10,11)/f/h10H2

>  <STRUCTURE_InChIKey>
RIKJWJIWXCUKQV-GIMVELNWCN

>  <StudyType>
Carcinogenicity

>  <Endpoint>
TD50; Tumor Target Sites

>  <Species>
mouse

>  <TD50_Mouse_mg>
9.95

>  <TD50_Mouse_mmol>
0.045

>  <ActivityScore_CPDBAS_Mouse>
43

>  <TargetSites_Mouse_Female>
hematopoietic system

>  <ActivityOutcome_CPDBAS_Mouse>
active

>  <ActivityOutcome_CPDBAS_SingleCellCall>
active

>  <ChemicalPage_URL>
http://potency.berkeley.edu/chempages/2-AMINO-4-(p-NITROPHENYL)THIAZOLE.html

$$$$



  9  9  0  0  0  0  0  0  0  0999 V2000
    5.1188   -0.2969    0.0000 O   0  0  0  0  0  0  0  0  0  0  0  0
    4.4533   -1.4486    0.0000 N   0  3  0  0  0  0  0  0  0  0  0  0
    3.1225   -1.4486    0.0000 C   0  0  0  0  0  0  0  0  0  0  0  0
    2.3393   -2.5236    0.0000 C   0  0  0  0  0  0  0  0  0  0  0  0
    1.0749   -2.1141    0.0000 N   0  0  0  0  0  0  0  0  0  0  0  0
    1.0749   -0.7832    0.0000 C   0  0  0  0  0  0  0  0  0  0  0  0
    2.3393   -0.3737    0.0000 S   0  0  0  0  0  0  0  0  0  0  0  0
    0.0000    0.0000    0.0000 N   0  0  0  0  0  0  0  0  0  0  0  0
    5.1188   -2.6003    0.0000 O   0  5  0  0  0  0  0  0  0  0  0  0
  1  2  2  0  0  0  0
  2  3  1  0  0  0  0
  2  9  1  0  0  0  0
  3  4  2  0  0  0  0
  3  7  1  0  0  0  0
  4  5  1  0  0  0  0
  5  6  2  0  0  0  0
  6  7  1  0  0  0  0
  6  8  1  0  0  0  0
M  END
>  <DSSTox_RID>
20066

>  <DSSTox_CID>
66

>  <DSSTox_Generic_SID>
20066

>  <DSSTox_FileID>
67_CPDBAS_v5d

>  <STRUCTURE_Formula>
C3H3N3O2S

>  <STRUCTURE_MolecularWeight>
145.1398

>  <STRUCTURE_ChemicalType>
defined organic

>  <STRUCTURE_TestedForm_DefinedOrganic>
parent

>  <STRUCTURE_Shown>
tested chemical

>  <TestSubstance_ChemicalName>
2-Amino-5-nitrothiazole

>  <TestSubstance_CASRN>
121-66-4

>  <TestSubstance_Description>
single chemical compound

>  <STRUCTURE_ChemicalName_IUPAC>
5-nitro-1,3-thiazol-2-amine

>  <STRUCTURE_SMILES>
O=[N+](C1=CN=C(S1)N)[O-]

>  <STRUCTURE_Parent_SMILES>
O=[N+](C1=CN=C(S1)N)[O-]

>  <STRUCTURE_InChI>
InChI=1/C3H3N3O2S/c4-3-5-1-2(9-3)6(7)8/h1H,(H2,4,5)/f/h4H2

>  <STRUCTURE_InChIKey>
MIHADVKEHAFNPG-LGEMBHMGCP

>  <StudyType>
Carcinogenicity

>  <Endpoint>
TD50; Tumor Target Sites

>  <Species>
rat; mouse

>  <ActivityOutcome_CPDBAS_Mutagenicity>
active

>  <TD50_Rat_mg>
44.6

>  <TD50_Rat_mmol>
0.307

>  <ActivityScore_CPDBAS_Rat>
31

>  <TargetSites_Rat_Male>
no positive results - CPDB evaluation based on NCI Technical Report

>  <TargetSites_Rat_Female>
kidney; lung; mammary gland

>  <ActivityOutcome_CPDBAS_Rat>
active

>  <ActivityScore_CPDBAS_Mouse>
0

>  <TD50_Mouse_Note>
no positive results

>  <TargetSites_Mouse_Male>
no positive results

>  <TargetSites_Mouse_Female>
no positive results

>  <ActivityOutcome_CPDBAS_Mouse>
inactive

>  <ActivityOutcome_CPDBAS_SingleCellCall>
active

>  <ActivityOutcome_CPDBAS_MultiCellCall>
active

>  <ActivityOutcome_CPDBAS_MultiCellCall_Details>
multisite active

>  <Note_CPDBAS>
TargetSites_Rat_Male modified v5d

>  <NTP_TechnicalReport>
TR 53; final call in CPDB differs due to additional data; NTP-assigned level of evidence of carcinogenicity is "positive" in male rat; noting that "these experiments were particularly difficult to evaluate".

>  <ChemicalPage_URL>
http://potency.berkeley.edu/chempages/2-AMINO-5-NITROTHIAZOLE.html

$$$$



 17 19  0  0  0  0  0  0  0  0999 V2000
    3.3283    0.0000    0.0000 O   0  0  0  0  0  0  0  0  0  0  0  0
    3.9907   -1.1493    0.0000 C   0  0  0  0  0  0  0  0  0  0  0  0
    3.3283   -2.2987    0.0000 C   0  0  0  0  0  0  0  0  0  0  0  0
    1.9954   -2.2987    0.0000 C   0  0  0  0  0  0  0  0  0  0  0  0
    1.3329   -3.4560    0.0000 C   0  0  0  0  0  0  0  0  0  0  0  0
    1.9954   -4.6053    0.0000 C   0  0  0  0  0  0  0  0  0  0  0  0
    3.3283   -4.6053    0.0000 C   0  0  0  0  0  0  0  0  0  0  0  0
    3.9907   -3.4560    0.0000 C   0  0  0  0  0  0  0  0  0  0  0  0
    5.3236   -3.4560    0.0000 C   0  0  0  0  0  0  0  0  0  0  0  0
    5.9861   -4.6053    0.0000 O   0  0  0  0  0  0  0  0  0  0  0  0
    5.9861   -2.2987    0.0000 C   0  0  0  0  0  0  0  0  0  0  0  0
    5.3236   -1.1493    0.0000 C   0  0  0  0  0  0  0  0  0  0  0  0
    5.9861    0.0000    0.0000 C   0  0  0  0  0  0  0  0  0  0  0  0
    7.3190    0.0000    0.0000 C   0  0  0  0  0  0  0  0  0  0  0  0
    7.9814   -1.1493    0.0000 C   0  0  0  0  0  0  0  0  0  0  0  0
    7.3190   -2.2987    0.0000 C   0  0  0  0  0  0  0  0  0  0  0  0
    0.0000   -3.4560    0.0000 N   0  0  0  0  0  0  0  0  0  0  0  0
  1  2  2  0  0  0  0
  2  3  1  0  0  0  0
  2 12  1  0  0  0  0
  3  4  2  0  0  0  0
  3  8  1  0  0  0  0
  4  5  1  0  0  0  0
  5  6  2  0  0  0  0
  5 17  1  0  0  0  0
  6  7  1  0  0  0  0
  7  8  2  0  0  0  0
  8  9  1  0  0  0  0
  9 10  2  0  0  0  0
  9 11  1  0  0  0  0
 11 12  2  0  0  0  0
 11 16  1  0  0  0  0
 12 13  1  0  0  0  0
 13 14  2  0  0  0  0
 14 15  1  0  0  0  0
 15 16  2  0  0  0  0
M  END
>  <DSSTox_RID>
20068

>  <DSSTox_CID>
68

>  <DSSTox_Generic_SID>
20068

>  <DSSTox_FileID>
69_CPDBAS_v5d

>  <STRUCTURE_Formula>
C14H9NO2

>  <STRUCTURE_MolecularWeight>
223.2268

>  <STRUCTURE_ChemicalType>
defined organic

>  <STRUCTURE_TestedForm_DefinedOrganic>
parent

>  <STRUCTURE_Shown>
tested chemical

>  <TestSubstance_ChemicalName>
2-Aminoanthraquinone

>  <TestSubstance_CASRN>
117-79-3

>  <TestSubstance_Description>
single chemical compound

>  <STRUCTURE_ChemicalName_IUPAC>
2-amino-9,10-anthraquinone

>  <STRUCTURE_SMILES>
O=C1C2=CC(=CC=C2C(=O)C3=C1C=CC=C3)N

>  <STRUCTURE_Parent_SMILES>
O=C1C2=CC(=CC=C2C(=O)C3=C1C=CC=C3)N

>  <STRUCTURE_InChI>
InChI=1/C14H9NO2/c15-8-5-6-11-12(7-8)14(17)10-4-2-1-3-9(10)13(11)16/h1-7H,15H2

>  <STRUCTURE_InChIKey>
XOGPDSATLSAZEK-UHFFFAOYAH

>  <StudyType>
Carcinogenicity

>  <Endpoint>
TD50; Tumor Target Sites

>  <Species>
rat; mouse

>  <ActivityOutcome_CPDBAS_Mutagenicity>
active

>  <TD50_Rat_mg>
101

>  <TD50_Rat_mmol>
0.452

>  <ActivityScore_CPDBAS_Rat>
29

>  <TargetSites_Rat_Male>
liver

>  <TargetSites_Rat_Female>
no positive results

>  <ActivityOutcome_CPDBAS_Rat>
active

>  <TD50_Mouse_mg>
1190

>  <TD50_Mouse_mmol>
5.33

>  <ActivityScore_CPDBAS_Mouse>
20

>  <TD50_Mouse_Note>
TD50 is harmonic mean of more than one positive test

>  <TargetSites_Mouse_Male>
liver

>  <TargetSites_Mouse_Female>
hematopoietic system; liver

>  <ActivityOutcome_CPDBAS_Mouse>
active

>  <ActivityOutcome_CPDBAS_SingleCellCall>
active

>  <ActivityOutcome_CPDBAS_MultiCellCall>
active

>  <ActivityOutcome_CPDBAS_MultiCellCall_Details>
multisite active; multisex active; multispecies active

>  <NTP_TechnicalReport>
TR 144

>  <ChemicalPage_URL>
http://potency.berkeley.edu/chempages/2-AMINOANTHRAQUINONE.html

$$$$



 17 18  0  0  0  0  0  0  0  0999 V2000
    2.6631    0.0000    0.0000 C   0  0  0  0  0  0  0  0  0  0  0  0
    1.9948   -1.1570    0.0000 C   0  0  0  0  0  0  0  0  0  0  0  0
    2.6631   -2.3040    0.0000 C   0  0  0  0  0  0  0  0  0  0  0  0
    1.9948   -3.4610    0.0000 C   0  0  0  0  0  0  0  0  0  0  0  0
    0.6683   -3.4610    0.0000 C   0  0  0  0  0  0  0  0  0  0  0  0
    0.0000   -2.3040    0.0000 C   0  0  0  0  0  0  0  0  0  0  0  0
    0.6683   -1.1570    0.0000 C   0  0  0  0  0  0  0  0  0  0  0  0
    3.9896   -2.3040    0.0000 N   0  0  0  0  0  0  0  0  0  0  0  0
    4.6579   -3.4610    0.0000 N   0  0  0  0  0  0  0  0  0  0  0  0
    5.9844   -3.4610    0.0000 C   0  0  0  0  0  0  0  0  0  0  0  0
    6.6527   -2.3040    0.0000 C   0  0  0  0  0  0  0  0  0  0  0  0
    7.9793   -2.3040    0.0000 C   0  0  0  0  0  0  0  0  0  0  0  0
    8.6475   -3.4610    0.0000 C   0  0  0  0  0  0  0  0  0  0  0  0
    7.9793   -4.6080    0.0000 C   0  0  0  0  0  0  0  0  0  0  0  0
    6.6527   -4.6080    0.0000 C   0  0  0  0  0  0  0  0  0  0  0  0
    9.9741   -3.4610    0.0000 N   0  0  0  0  0  0  0  0  0  0  0  0
    8.6475   -1.1570    0.0000 C   0  0  0  0  0  0  0  0  0  0  0  0
  1  2  1  0  0  0  0
  2  3  2  0  0  0  0
  2  7  1  0  0  0  0
  3  4  1  0  0  0  0
  3  8  1  0  0  0  0
  4  5  2  0  0  0  0
  5  6  1  0  0  0  0
  6  7  2  0  0  0  0
  8  9  2  0  0  0  0
  9 10  1  0  0  0  0
 10 11  2  0  0  0  0
 10 15  1  0  0  0  0
 11 12  1  0  0  0  0
 12 13  2  0  0  0  0
 12 17  1  0  0  0  0
 13 14  1  0  0  0  0
 13 16  1  0  0  0  0
 14 15  2  0  0  0  0
M  END
>  <DSSTox_RID>
20069

>  <DSSTox_CID>
69

>  <DSSTox_Generic_SID>
20069

>  <DSSTox_FileID>
70_CPDBAS_v5d

>  <STRUCTURE_Formula>
C14H15N3

>  <STRUCTURE_MolecularWeight>
225.289

>  <STRUCTURE_ChemicalType>
defined organic

>  <STRUCTURE_TestedForm_DefinedOrganic>
parent

>  <STRUCTURE_Shown>
tested chemical

>  <TestSubstance_ChemicalName>
o-Aminoazotoluene

>  <TestSubstance_CASRN>
97-56-3

>  <TestSubstance_Description>
single chemical compound

>  <STRUCTURE_ChemicalName_IUPAC>
2-methyl-4-[(E)-(2-methylphenyl)diazenyl]aniline

>  <STRUCTURE_SMILES>
CC1=C(C=CC=C1)/N=N/C2=CC(=C(C=C2)N)C

>  <STRUCTURE_Parent_SMILES>
CC1=C(C=CC=C1)/N=N/C2=CC(=C(C=C2)N)C

>  <STRUCTURE_InChI>
InChI=1/C14H15N3/c1-10-5-3-4-6-14(10)17-16-12-7-8-13(15)11(2)9-12/h3-9H,15H2,1-2H3/b17-16+

>  <STRUCTURE_InChIKey>
PFRYFZZSECNQOL-WUKNDPDIBU

>  <StudyType>
Carcinogenicity

>  <Endpoint>
TD50; Tumor Target Sites

>  <Species>
rat; mouse

>  <ActivityOutcome_CPDBAS_Mutagenicity>
active

>  <TD50_Rat_mg>
4.04

>  <TD50_Rat_mmol>
0.0179

>  <ActivityScore_CPDBAS_Rat>
44

>  <TD50_Rat_Note>
TD50 is harmonic mean of more than one positive test

>  <TargetSites_Rat_Male>
liver

>  <TargetSites_Rat_Female>
liver

>  <ActivityOutcome_CPDBAS_Rat>
active

>  <ActivityScore_CPDBAS_Mouse>
0

>  <TD50_Mouse_Note>
no positive results

>  <TargetSites_Mouse_Male>
no positive results

>  <ActivityOutcome_CPDBAS_Mouse>
inactive

>  <ActivityOutcome_CPDBAS_SingleCellCall>
active

>  <ActivityOutcome_CPDBAS_MultiCellCall>
active

>  <ActivityOutcome_CPDBAS_MultiCellCall_Details>
multisex active

>  <ChemicalPage_URL>
http://potency.berkeley.edu/chempages/o-AMINOAZOTOLUENE.html

$$$$



  9  8  0  0  0  0  0  0  0  0999 V2000
    0.0000    0.0000    0.0000 O   0  0  0  0  0  0  0  0  0  0  0  0
    1.1544   -0.6620    0.0000 C   0  0  0  0  0  0  0  0  0  0  0  0
    1.1544   -1.9939    0.0000 O   0  0  0  0  0  0  0  0  0  0  0  0
    2.3088    0.0000    0.0000 C   0  0  0  0  0  0  0  0  0  0  0  0
    3.4632   -0.6620    0.0000 C   0  0  0  0  0  0  0  0  0  0  0  0
    4.6095    0.0000    0.0000 C   0  0  0  0  0  0  0  0  0  0  0  0
    5.7639   -0.6620    0.0000 C   0  0  0  0  0  0  0  0  0  0  0  0
    6.9183    0.0000    0.0000 C   0  0  0  0  0  0  0  0  0  0  0  0
    8.0727   -0.6620    0.0000 N   0  0  0  0  0  0  0  0  0  0  0  0
  1  2  1  0  0  0  0
  2  3  2  0  0  0  0
  2  4  1  0  0  0  0
  4  5  1  0  0  0  0
  5  6  1  0  0  0  0
  6  7  1  0  0  0  0
  7  8  1  0  0  0  0
  8  9  1  0  0  0  0
M  END
>  <DSSTox_RID>
20070

>  <DSSTox_CID>
70

>  <DSSTox_Generic_SID>
20070

>  <DSSTox_FileID>
71_CPDBAS_v5d

>  <STRUCTURE_Formula>
C6H13NO2

>  <STRUCTURE_MolecularWeight>
131.1742

>  <STRUCTURE_ChemicalType>
defined organic

>  <STRUCTURE_TestedForm_DefinedOrganic>
parent

>  <STRUCTURE_Shown>
tested chemical

>  <TestSubstance_ChemicalName>
6-Aminocaproic acid

>  <TestSubstance_CASRN>
60-32-2

>  <TestSubstance_Description>
single chemical compound

>  <STRUCTURE_ChemicalName_IUPAC>
6-aminohexanoic acid

>  <STRUCTURE_SMILES>
OC(=O)CCCCCN

>  <STRUCTURE_Parent_SMILES>
OC(=O)CCCCCN

>  <STRUCTURE_InChI>
InChI=1/C6H13NO2/c7-5-3-1-2-4-6(8)9/h1-5,7H2,(H,8,9)/f/h8H

>  <STRUCTURE_InChIKey>
SLXKOJJOQWFEFD-FZOZFQFYCD

>  <StudyType>
Carcinogenicity

>  <Endpoint>
TD50; Tumor Target Sites

>  <Species>
rat

>  <ActivityScore_CPDBAS_Rat>
0

>  <TD50_Rat_Note>
no positive results

>  <TargetSites_Rat_Male>
no positive results

>  <ActivityOutcome_CPDBAS_Rat>
inactive

>  <ActivityOutcome_CPDBAS_SingleCellCall>
inactive

>  <ChemicalPage_URL>
http://potency.berkeley.edu/chempages/6-AMINOCAPROIC%20ACID.html

$$$$



 13 14  0  0  0  0  0  0  0  0999 V2000
    0.0000   -1.1562    0.0000 N   0  0  0  0  0  0  0  0  0  0  0  0
    1.3316   -1.1562    0.0000 C   0  0  0  0  0  0  0  0  0  0  0  0
    1.9935    0.0000    0.0000 C   0  0  0  0  0  0  0  0  0  0  0  0
    3.3251    0.0000    0.0000 C   0  0  0  0  0  0  0  0  0  0  0  0
    3.9869   -1.1562    0.0000 C   0  0  0  0  0  0  0  0  0  0  0  0
    3.3251   -2.3044    0.0000 C   0  0  0  0  0  0  0  0  0  0  0  0
    1.9935   -2.3044    0.0000 C   0  0  0  0  0  0  0  0  0  0  0  0
    5.3186   -1.1562    0.0000 C   0  0  0  0  0  0  0  0  0  0  0  0
    5.9804    0.0000    0.0000 C   0  0  0  0  0  0  0  0  0  0  0  0
    7.3120    0.0000    0.0000 C   0  0  0  0  0  0  0  0  0  0  0  0
    7.9739   -1.1562    0.0000 C   0  0  0  0  0  0  0  0  0  0  0  0
    7.3120   -2.3044    0.0000 C   0  0  0  0  0  0  0  0  0  0  0  0
    5.9804   -2.3044    0.0000 C   0  0  0  0  0  0  0  0  0  0  0  0
  1  2  1  0  0  0  0
  2  3  2  0  0  0  0
  2  7  1  0  0  0  0
  3  4  1  0  0  0  0
  4  5  2  0  0  0  0
  5  6  1  0  0  0  0
  5  8  1  0  0  0  0
  6  7  2  0  0  0  0
  8  9  2  0  0  0  0
  8 13  1  0  0  0  0
  9 10  1  0  0  0  0
 10 11  2  0  0  0  0
 11 12  1  0  0  0  0
 12 13  2  0  0  0  0
M  END
>  <DSSTox_RID>
20071

>  <DSSTox_CID>
71

>  <DSSTox_Generic_SID>
20071

>  <DSSTox_FileID>
72_CPDBAS_v5d

>  <STRUCTURE_Formula>
C12H11N

>  <STRUCTURE_MolecularWeight>
169.2224

>  <STRUCTURE_ChemicalType>
defined organic

>  <STRUCTURE_TestedForm_DefinedOrganic>
parent

>  <STRUCTURE_Shown>
tested chemical

>  <TestSubstance_ChemicalName>
4-Aminodiphenyl

>  <TestSubstance_CASRN>
92-67-1

>  <TestSubstance_Description>
single chemical compound

>  <STRUCTURE_ChemicalName_IUPAC>
biphenyl-4-amine

>  <STRUCTURE_SMILES>
NC1=CC=C(C=C1)C2=CC=CC=C2

>  <STRUCTURE_Parent_SMILES>
NC1=CC=C(C=C1)C2=CC=CC=C2

>  <STRUCTURE_InChI>
InChI=1/C12H11N/c13-12-8-6-11(7-9-12)10-4-2-1-3-5-10/h1-9H,13H2

>  <STRUCTURE_InChIKey>
DMVOXQPQNTYEKQ-UHFFFAOYAX

>  <StudyType>
Carcinogenicity

>  <Endpoint>
TD50; Tumor Target Sites

>  <Species>
mouse

>  <ActivityOutcome_CPDBAS_Mutagenicity>
active

>  <TD50_Mouse_mg>
2.1

>  <TD50_Mouse_mmol>
0.0124

>  <ActivityScore_CPDBAS_Mouse>
50

>  <TD50_Mouse_Note>
TD50 is harmonic mean of more than one positive test

>  <TargetSites_Mouse_Male>
liver; urinary bladder

>  <TargetSites_Mouse_Female>
liver; urinary bladder

>  <ActivityOutcome_CPDBAS_Mouse>
active

>  <ActivityOutcome_CPDBAS_SingleCellCall>
active

>  <ActivityOutcome_CPDBAS_MultiCellCall>
active

>  <ActivityOutcome_CPDBAS_MultiCellCall_Details>
multisite active; multisex active

>  <ChemicalPage_URL>
http://potency.berkeley.edu/chempages/4-AMINODIPHENYL.html

$$$$



 14 16  0  0  0  0  0  0  0  0999 V2000
    0.0000   -2.8880    0.0000 N   0  0  0  0  0  0  0  0  0  0  0  0
    1.0775   -2.1037    0.0000 C   0  0  0  0  0  0  0  0  0  0  0  0
    2.2943   -2.6461    0.0000 C   0  0  0  0  0  0  0  0  0  0  0  0
    3.3645   -1.8618    0.0000 C   0  0  0  0  0  0  0  0  0  0  0  0
    4.6692   -2.1404    0.0000 C   0  0  0  0  0  0  0  0  0  0  0  0
    5.3363   -0.9896    0.0000 C   0  0  0  0  0  0  0  0  0  0  0  0
    6.6630   -0.9896    0.0000 C   0  0  0  0  0  0  0  0  0  0  0  0
    7.3301   -2.1404    0.0000 C   0  0  0  0  0  0  0  0  0  0  0  0
    6.6630   -3.2912    0.0000 C   0  0  0  0  0  0  0  0  0  0  0  0
    5.3363   -3.2912    0.0000 C   0  0  0  0  0  0  0  0  0  0  0  0
    4.4420    0.0000    0.0000 O   0  0  0  0  0  0  0  0  0  0  0  0
    3.2326   -0.5424    0.0000 C   0  0  0  0  0  0  0  0  0  0  0  0
    2.0158    0.0000    0.0000 C   0  0  0  0  0  0  0  0  0  0  0  0
    0.9382   -0.7770    0.0000 C   0  0  0  0  0  0  0  0  0  0  0  0
  1  2  1  0  0  0  0
  2  3  2  0  0  0  0
  2 14  1  0  0  0  0
  3  4  1  0  0  0  0
  4  5  1  0  0  0  0
  4 12  2  0  0  0  0
  5  6  2  0  0  0  0
  5 10  1  0  0  0  0
  6  7  1  0  0  0  0
  6 11  1  0  0  0  0
  7  8  2  0  0  0  0
  8  9  1  0  0  0  0
  9 10  2  0  0  0  0
 11 12  1  0  0  0  0
 12 13  1  0  0  0  0
 13 14  2  0  0  0  0
M  END
>  <DSSTox_RID>
20073

>  <DSSTox_CID>
73

>  <DSSTox_Generic_SID>
39239

>  <DSSTox_FileID>
74_CPDBAS_v5d

>  <STRUCTURE_Formula>
C12H9NO

>  <STRUCTURE_MolecularWeight>
183.2092

>  <STRUCTURE_ChemicalType>
defined organic

>  <STRUCTURE_TestedForm_DefinedOrganic>
parent

>  <STRUCTURE_Shown>
tested chemical

>  <TestSubstance_ChemicalName>
2-Aminodiphenylene oxide

>  <TestSubstance_CASRN>
3693-22-9

>  <TestSubstance_Description>
single chemical compound

>  <STRUCTURE_ChemicalName_IUPAC>
dibenzo[b,d]furan-2-amine

>  <STRUCTURE_SMILES>
NC3=CC1=C(C=C3)OC2=C1C=CC=C2

>  <STRUCTURE_Parent_SMILES>
NC3=CC1=C(C=C3)OC2=C1C=CC=C2

>  <STRUCTURE_InChI>
InChI=1/C12H9NO/c13-8-5-6-12-10(7-8)9-3-1-2-4-11(9)14-12/h1-7H,13H2

>  <STRUCTURE_InChIKey>
FFYZMBQLAYDJIG-UHFFFAOYAK

>  <StudyType>
Carcinogenicity

>  <Endpoint>
TD50; Tumor Target Sites

>  <Species>
mouse

>  <TD50_Mouse_mg>
4.24

>  <TD50_Mouse_mmol>
0.0231

>  <ActivityScore_CPDBAS_Mouse>
47

>  <TD50_Mouse_Note>
TD50 is harmonic mean of more than one positive test; harmonic mean of TD50 includes a value for upper 99% confidence limit from study with 100% tumor incidence but no lifetable

>  <TargetSites_Mouse_Male>
liver; urinary bladder

>  <TargetSites_Mouse_Female>
liver

>  <ActivityOutcome_CPDBAS_Mouse>
active

>  <ActivityOutcome_CPDBAS_SingleCellCall>
active

>  <ActivityOutcome_CPDBAS_MultiCellCall>
active

>  <ActivityOutcome_CPDBAS_MultiCellCall_Details>
multisite active; multisex active

>  <ChemicalPage_URL>
http://potency.berkeley.edu/chempages/2-AMINODIPHENYLENE%20OXIDE.html

$$$$



 12 12  0  0  0  0  0  0  0  0999 V2000
    4.0663   -4.2139    0.0000 N   0  0  0  0  0  0  0  0  0  0  0  0
    3.6134   -2.9635    0.0000 C   0  0  0  0  0  0  0  0  0  0  0  0
    2.3039   -2.7322    0.0000 C   0  0  0  0  0  0  0  0  0  0  0  0
    2.7568   -1.4818    0.0000 C   0  0  0  0  0  0  0  0  0  0  0  0
    4.0663   -1.2504    0.0000 C   0  0  0  0  0  0  0  0  0  0  0  0
    4.9228   -2.2694    0.0000 O   0  0  0  0  0  0  0  0  0  0  0  0
    4.5241    0.0000    0.0000 O   0  0  0  0  0  0  0  0  0  0  0  0
    2.3039   -4.0613    0.0000 C   0  0  0  0  0  0  0  0  0  0  0  0
    1.1519   -4.7259    0.0000 C   0  0  0  0  0  0  0  0  0  0  0  0
    0.0000   -4.0613    0.0000 C   0  0  0  0  0  0  0  0  0  0  0  0
    0.0000   -2.7322    0.0000 C   0  0  0  0  0  0  0  0  0  0  0  0
    1.1519   -2.0676    0.0000 C   0  0  0  0  0  0  0  0  0  0  0  0
  1  2  1  0  0  0  0
  2  3  1  0  0  0  0
  3  4  1  0  0  0  0
  3  8  1  0  0  0  0
  3 12  1  0  0  0  0
  4  5  1  0  0  0  0
  5  6  2  0  0  0  0
  5  7  1  0  0  0  0
  8  9  1  0  0  0  0
  9 10  1  0  0  0  0
 10 11  1  0  0  0  0
 11 12  1  0  0  0  0
M  END
>  <DSSTox_RID>
20074

>  <DSSTox_CID>
74

>  <DSSTox_Generic_SID>
20074

>  <DSSTox_FileID>
75_CPDBAS_v5d

>  <STRUCTURE_Formula>
C9H17NO2

>  <STRUCTURE_MolecularWeight>
171.2388

>  <STRUCTURE_ChemicalType>
defined organic

>  <STRUCTURE_TestedForm_DefinedOrganic>
parent

>  <STRUCTURE_Shown>
tested chemical

>  <TestSubstance_ChemicalName>
1-(Aminomethyl)cyclohexaneacetic acid

>  <TestSubstance_CASRN>
60142-96-3

>  <TestSubstance_Description>
single chemical compound

>  <STRUCTURE_ChemicalName_IUPAC>
[1-(aminomethyl)cyclohexyl]acetic acid

>  <STRUCTURE_SMILES>
NCC1(CC(=O)O)CCCCC1

>  <STRUCTURE_Parent_SMILES>
NCC1(CC(=O)O)CCCCC1

>  <STRUCTURE_InChI>
InChI=1/C9H17NO2/c10-7-9(6-8(11)12)4-2-1-3-5-9/h1-7,10H2,(H,11,12)/f/h11H

>  <STRUCTURE_InChIKey>
UGJMXCAKCUNAIE-WXRBYKJCCG

>  <StudyType>
Carcinogenicity

>  <Endpoint>
TD50; Tumor Target Sites

>  <Species>
rat

>  <TD50_Rat_mg>
5850

>  <TD50_Rat_mmol>
34.2

>  <ActivityScore_CPDBAS_Rat>
10

>  <TargetSites_Rat_Male>
pancreas

>  <TargetSites_Rat_Female>
no positive results

>  <ActivityOutcome_CPDBAS_Rat>
active

>  <ActivityOutcome_CPDBAS_SingleCellCall>
active

>  <Note_CPDBAS>
Rat added v3a

>  <ChemicalPage_URL>
http://potency.berkeley.edu/chempages/1-(AMINOMETHYL)CYCLOHEXANEACETIC%20ACID.html

$$$$



  6  6  0  0  0  0  0  0  0  0999 V2000
    1.3304   -1.0738    0.0000 C   0  0  0  0  0  0  0  0  0  0  0  0
    2.1104    0.0000    0.0000 N   0  0  0  0  0  0  0  0  0  0  0  0
    3.3767   -0.4086    0.0000 C   0  0  0  0  0  0  0  0  0  0  0  0
    3.3767   -1.7390    0.0000 N   0  0  0  0  0  0  0  0  0  0  0  0
    2.1104   -2.1509    0.0000 N   0  0  0  0  0  0  0  0  0  0  0  0
    0.0000   -1.0738    0.0000 N   0  0  0  0  0  0  0  0  0  0  0  0
  1  2  1  0  0  0  0
  1  5  2  0  0  0  0
  1  6  1  0  0  0  0
  2  3  2  0  0  0  0
  3  4  1  0  0  0  0
  4  5  1  0  0  0  0
M  END
>  <DSSTox_RID>
20076

>  <DSSTox_CID>
76

>  <DSSTox_Generic_SID>
20076

>  <DSSTox_FileID>
77_CPDBAS_v5d

>  <STRUCTURE_Formula>
C2H4N4

>  <STRUCTURE_MolecularWeight>
84.08

>  <STRUCTURE_ChemicalType>
defined organic

>  <STRUCTURE_TestedForm_DefinedOrganic>
parent

>  <STRUCTURE_Shown>
tested chemical

>  <TestSubstance_ChemicalName>
3-Aminotriazole

>  <TestSubstance_CASRN>
61-82-5

>  <TestSubstance_Description>
single chemical compound

>  <ChemicalNote>
tautomers

>  <STRUCTURE_ChemicalName_IUPAC>
1H-1,2,4-triazol-3-amine

>  <STRUCTURE_SMILES>
C1(N=CNN=1)N

>  <STRUCTURE_Parent_SMILES>
C1(N=CNN=1)N

>  <STRUCTURE_InChI>
InChI=1/C2H4N4/c3-2-4-1-5-6-2/h1H,(H3,3,4,5,6)/f/h5H,3H2

>  <STRUCTURE_InChIKey>
KLSJWNVTNUYHDU-YPUDGCQOCD

>  <StudyType>
Carcinogenicity

>  <Endpoint>
TD50; Tumor Target Sites

>  <Species>
rat; mouse; hamster

>  <ActivityOutcome_CPDBAS_Mutagenicity>
inactive

>  <TD50_Rat_mg>
9.94

>  <TD50_Rat_mmol>
0.118

>  <ActivityScore_CPDBAS_Rat>
35

>  <TD50_Rat_Note>
TD50 is harmonic mean of more than one positive test

>  <TargetSites_Rat_Male>
thyroid gland

>  <TargetSites_Rat_Female>
pituitary gland; thyroid gland

>  <ActivityOutcome_CPDBAS_Rat>
active

>  <TD50_Mouse_mg>
25.3

>  <TD50_Mouse_mmol>
0.301

>  <ActivityScore_CPDBAS_Mouse>
34

>  <TD50_Mouse_Note>
TD50 is harmonic mean of more than one positive test

>  <TargetSites_Mouse_Male>
liver

>  <TargetSites_Mouse_Female>
liver

>  <ActivityOutcome_CPDBAS_Mouse>
active

>  <ActivityScore_CPDBAS_Hamster>
0

>  <TD50_Hamster_Note>
no positive results

>  <TargetSites_Hamster_Male>
no positive results

>  <TargetSites_Hamster_Female>
no positive results

>  <ActivityOutcome_CPDBAS_Hamster>
inactive

>  <ActivityOutcome_CPDBAS_SingleCellCall>
active

>  <ActivityOutcome_CPDBAS_MultiCellCall>
active

>  <ActivityOutcome_CPDBAS_MultiCellCall_Details>
multisite active; multisex active; multispecies active

>  <ChemicalPage_URL>
http://potency.berkeley.edu/chempages/3-AMINOTRIAZOLE.html

$$$$



 14 13  0  0  0  0  0  0  0  0999 V2000
    1.1352   -1.3403    0.0000 C   0  0  0  0  0  0  0  0  0  0  0  0
    2.2703   -2.0241    0.0000 C   0  0  0  0  0  0  0  0  0  0  0  0
    3.4055   -1.3403    0.0000 C   0  0  0  0  0  0  0  0  0  0  0  0
    4.5680   -2.0241    0.0000 C   0  0  0  0  0  0  0  0  0  0  0  0
    5.7032   -1.3403    0.0000 C   0  0  0  0  0  0  0  0  0  0  0  0
    6.8383   -2.0241    0.0000 C   0  0  0  0  0  0  0  0  0  0  0  0
    7.9735   -1.3403    0.0000 C   0  0  0  0  0  0  0  0  0  0  0  0
    9.1086   -2.0241    0.0000 C   0  0  0  0  0  0  0  0  0  0  0  0
   10.2712   -1.3403    0.0000 C   0  0  0  0  0  0  0  0  0  0  0  0
   11.4063   -2.0241    0.0000 C   0  0  0  0  0  0  0  0  0  0  0  0
   12.5415   -1.3403    0.0000 C   0  0  0  0  0  0  0  0  0  0  0  0
    1.1352    0.0000    0.0000 O   0  0  0  0  0  0  0  0  0  0  0  0
    0.0000   -2.0241    0.0000 O   0  0  0  0  0  0  0  0  0  0  0  0
   13.6766   -2.0241    0.0000 N   0  0  0  0  0  0  0  0  0  0  0  0
  1  2  1  0  0  0  0
  1 13  1  0  0  0  0
  1 12  2  0  0  0  0
  2  3  1  0  0  0  0
  3  4  1  0  0  0  0
  4  5  1  0  0  0  0
  5  6  1  0  0  0  0
  6  7  1  0  0  0  0
  7  8  1  0  0  0  0
  8  9  1  0  0  0  0
  9 10  1  0  0  0  0
 10 11  1  0  0  0  0
 11 14  1  0  0  0  0
M  END
>  <DSSTox_RID>
20077

>  <DSSTox_CID>
77

>  <DSSTox_Generic_SID>
20077

>  <DSSTox_FileID>
78_CPDBAS_v5d

>  <STRUCTURE_Formula>
C11H23NO2

>  <STRUCTURE_MolecularWeight>
201.3058

>  <STRUCTURE_ChemicalType>
defined organic

>  <STRUCTURE_TestedForm_DefinedOrganic>
parent

>  <STRUCTURE_Shown>
tested chemical

>  <TestSubstance_ChemicalName>
11-Aminoundecanoic acid

>  <TestSubstance_CASRN>
2432-99-7

>  <TestSubstance_Description>
single chemical compound

>  <STRUCTURE_ChemicalName_IUPAC>
11-aminoundecanoic acid

>  <STRUCTURE_SMILES>
OC(=O)CCCCCCCCCCN

>  <STRUCTURE_Parent_SMILES>
OC(=O)CCCCCCCCCCN

>  <STRUCTURE_InChI>
InChI=1/C11H23NO2/c12-10-8-6-4-2-1-3-5-7-9-11(13)14/h1-10,12H2,(H,13,14)/f/h13H

>  <STRUCTURE_InChIKey>
GUOSQNAUYHMCRU-NDKGDYFDCZ

>  <StudyType>
Carcinogenicity

>  <Endpoint>
TD50; Tumor Target Sites

>  <Species>
rat; mouse

>  <ActivityOutcome_CPDBAS_Mutagenicity>
inactive

>  <TD50_Rat_mg>
1100

>  <TD50_Rat_mmol>
5.46

>  <ActivityScore_CPDBAS_Rat>
18

>  <TargetSites_Rat_Male>
liver; urinary bladder

>  <TargetSites_Rat_Female>
no positive results

>  <ActivityOutcome_CPDBAS_Rat>
active

>  <ActivityScore_CPDBAS_Mouse>
0

>  <TD50_Mouse_Note>
no positive results

>  <TargetSites_Mouse_Male>
no positive results

>  <TargetSites_Mouse_Female>
no positive results

>  <ActivityOutcome_CPDBAS_Mouse>
inactive

>  <ActivityOutcome_CPDBAS_SingleCellCall>
active

>  <ActivityOutcome_CPDBAS_MultiCellCall>
active

>  <ActivityOutcome_CPDBAS_MultiCellCall_Details>
multisite active

>  <NTP_TechnicalReport>
TR 216

>  <ChemicalPage_URL>
http://potency.berkeley.edu/chempages/11-AMINOUNDECANOIC%20ACID.html

$$$$



 16 16  0  0  0  0  0  0  0  0999 V2000
    3.1752   -3.9923    0.0000 O   0  0  0  0  0  0  0  0  0  0  0  0
    4.3269   -3.3308    0.0000 C   0  0  0  0  0  0  0  0  0  0  0  0
    4.3269   -2.0000    0.0000 C   0  0  0  0  0  0  0  0  0  0  0  0
    5.4787   -1.3308    0.0000 C   0  0  0  0  0  0  0  0  0  0  0  0
    5.4787    0.0000    0.0000 O   0  0  0  0  0  0  0  0  0  0  0  0
    6.6305   -2.0000    0.0000 N   0  0  0  0  0  0  0  0  0  0  0  0
    6.6305   -3.3308    0.0000 C   0  0  0  0  0  0  0  0  0  0  0  0
    7.7823   -3.9923    0.0000 O   0  0  0  0  0  0  0  0  0  0  0  0
    5.4787   -3.9923    0.0000 N   0  0  0  0  0  0  0  0  0  0  0  0
    3.0195   -2.2257    0.0000 C   0  0  0  0  0  0  0  0  0  0  0  0
    2.1635   -1.2140    0.0000 C   0  0  0  0  0  0  0  0  0  0  0  0
    0.8560   -1.4397    0.0000 C   0  0  0  0  0  0  0  0  0  0  0  0
    0.3969   -2.6927    0.0000 C   0  0  0  0  0  0  0  0  0  0  0  0
    0.0000   -0.4202    0.0000 C   0  0  0  0  0  0  0  0  0  0  0  0
    3.8756   -0.7471    0.0000 C   0  0  0  0  0  0  0  0  0  0  0  0
    2.5604   -0.5214    0.0000 C   0  0  0  0  0  0  0  0  0  0  0  0
  1  2  2  0  0  0  0
  2  3  1  0  0  0  0
  2  9  1  0  0  0  0
  3  4  1  0  0  0  0
  3 10  1  0  0  0  0
  3 15  1  0  0  0  0
  4  5  2  0  0  0  0
  4  6  1  0  0  0  0
  6  7  1  0  0  0  0
  7  8  2  0  0  0  0
  7  9  1  0  0  0  0
 10 11  1  0  0  0  0
 11 12  1  0  0  0  0
 12 13  1  0  0  0  0
 12 14  1  0  0  0  0
 15 16  1  0  0  0  0
M  END
>  <DSSTox_RID>
20081

>  <DSSTox_CID>
81

>  <DSSTox_Generic_SID>
20081

>  <DSSTox_FileID>
82_CPDBAS_v5d

>  <STRUCTURE_Formula>
C11H18N2O3

>  <STRUCTURE_MolecularWeight>
226.2748

>  <STRUCTURE_ChemicalType>
defined organic

>  <STRUCTURE_TestedForm_DefinedOrganic>
parent

>  <STRUCTURE_Shown>
tested chemical

>  <TestSubstance_ChemicalName>
Amobarbital

>  <TestSubstance_CASRN>
57-43-2

>  <TestSubstance_Description>
single chemical compound

>  <STRUCTURE_ChemicalName_IUPAC>
5-ethyl-5-(3-methylbutyl)pyrimidine-2,4,6(1H,3H,5H)-trione

>  <STRUCTURE_SMILES>
N1C(=O)C(CC)(CCC(C)C)C(=O)NC1=O

>  <STRUCTURE_Parent_SMILES>
N1C(=O)C(CC)(CCC(C)C)C(=O)NC1=O

>  <STRUCTURE_InChI>
InChI=1/C11H18N2O3/c1-4-11(6-5-7(2)3)8(14)12-10(16)13-9(11)15/h7H,4-6H2,1-3H3,(H2,12,13,14,15,16)/f/h12-13H

>  <STRUCTURE_InChIKey>
VIROVYVQCGLCII-BAINRFMOCW

>  <StudyType>
Carcinogenicity

>  <Endpoint>
TD50; Tumor Target Sites

>  <Species>
rat

>  <ActivityScore_CPDBAS_Rat>
0

>  <TD50_Rat_Note>
no positive results

>  <TargetSites_Rat_Male>
no positive results

>  <ActivityOutcome_CPDBAS_Rat>
inactive

>  <ActivityOutcome_CPDBAS_SingleCellCall>
inactive

>  <ChemicalPage_URL>
http://potency.berkeley.edu/chempages/AMOBARBITAL.html

$$$$



 11 10  0  0  0  0  0  0  0  0999 V2000
    1.1536    0.0000    0.0000 O   0  0  0  0  0  0  0  0  0  0  0  0
    2.3071   -0.6696    0.0000 C   0  0  0  0  0  0  0  0  0  0  0  0
    2.3071   -2.0006    0.0000 N   0  0  0  0  0  0  0  0  0  0  0  0
    3.4607   -2.6621    0.0000 C   0  0  0  0  0  0  0  0  0  0  0  0
    4.6062   -2.0006    0.0000 C   0  0  0  0  0  0  0  0  0  0  0  0
    5.7598   -2.6621    0.0000 C   0  0  0  0  0  0  0  0  0  0  0  0
    6.9133   -2.0006    0.0000 C   0  0  0  0  0  0  0  0  0  0  0  0
    8.0669   -2.6621    0.0000 C   0  0  0  0  0  0  0  0  0  0  0  0
    1.1536   -2.6621    0.0000 N   0  0  0  0  0  0  0  0  0  0  0  0
    0.0000   -2.0006    0.0000 O   0  0  0  0  0  0  0  0  0  0  0  0
    3.4607    0.0000    0.0000 N   0  0  0  0  0  0  0  0  0  0  0  0
  1  2  2  0  0  0  0
  2  3  1  0  0  0  0
  2 11  1  0  0  0  0
  3  4  1  0  0  0  0
  3  9  1  0  0  0  0
  4  5  1  0  0  0  0
  5  6  1  0  0  0  0
  6  7  1  0  0  0  0
  7  8  1  0  0  0  0
  9 10  2  0  0  0  0
M  END
>  <DSSTox_RID>
20084

>  <DSSTox_CID>
84

>  <DSSTox_Generic_SID>
20084

>  <DSSTox_FileID>
85_CPDBAS_v5d

>  <STRUCTURE_Formula>
C6H13N3O2

>  <STRUCTURE_MolecularWeight>
159.1876

>  <STRUCTURE_ChemicalType>
defined organic

>  <STRUCTURE_TestedForm_DefinedOrganic>
parent

>  <STRUCTURE_Shown>
tested chemical

>  <TestSubstance_ChemicalName>
1-Amyl-1-nitrosourea

>  <TestSubstance_CASRN>
10589-74-9

>  <TestSubstance_Description>
single chemical compound

>  <STRUCTURE_ChemicalName_IUPAC>
1-nitroso-1-pentylurea

>  <STRUCTURE_SMILES>
O=C(N(CCCCC)N=O)N

>  <STRUCTURE_Parent_SMILES>
O=C(N(CCCCC)N=O)N

>  <STRUCTURE_InChI>
InChI=1/C6H13N3O2/c1-2-3-4-5-9(8-11)6(7)10/h2-5H2,1H3,(H2,7,10)/f/h7H2

>  <STRUCTURE_InChIKey>
YYTNAQDGJQPZFU-IAUQMDSZCI

>  <StudyType>
Carcinogenicity

>  <Endpoint>
TD50; Tumor Target Sites

>  <Species>
rat

>  <TD50_Rat_mg>
0.555

>  <TD50_Rat_mmol>
0.00349

>  <ActivityScore_CPDBAS_Rat>
51

>  <TD50_Rat_Note>
TD50 is harmonic mean of more than one positive test

>  <TargetSites_Rat_Male>
hematopoietic system; lung; stomach

>  <TargetSites_Rat_Female>
hematopoietic system; lung; mammary gland; stomach; uterus

>  <ActivityOutcome_CPDBAS_Rat>
active

>  <ActivityOutcome_CPDBAS_SingleCellCall>
active

>  <ActivityOutcome_CPDBAS_MultiCellCall>
active

>  <ActivityOutcome_CPDBAS_MultiCellCall_Details>
multisite active; multisex active

>  <Note_CPDBAS>
TD50_Rat modified v5a

>  <ChemicalPage_URL>
http://potency.berkeley.edu/chempages/1-AMYL-1-NITROSOUREA.html

$$$$



 11 11  0  0  0  0  0  0  0  0999 V2000
    0.0000    0.0000    0.0000 C   0  0  0  0  0  0  0  0  0  0  0  0
    1.3316    0.0000    0.0000 C   0  0  0  0  0  0  0  0  0  0  0  0
    1.9934   -1.1561    0.0000 C   0  0  0  0  0  0  0  0  0  0  0  0
    3.3249   -1.1561    0.0000 C   0  0  0  0  0  0  0  0  0  0  0  0
    3.9867    0.0000    0.0000 C   0  0  0  0  0  0  0  0  0  0  0  0
    5.3183    0.0000    0.0000 C   0  0  0  0  0  0  0  0  0  0  0  0
    5.9801   -1.1561    0.0000 C   0  0  0  0  0  0  0  0  0  0  0  0
    5.3183   -2.3043    0.0000 C   0  0  0  0  0  0  0  0  0  0  0  0
    3.9867   -2.3043    0.0000 C   0  0  0  0  0  0  0  0  0  0  0  0
    7.3116   -1.1561    0.0000 O   0  0  0  0  0  0  0  0  0  0  0  0
    7.9734   -2.3043    0.0000 C   0  0  0  0  0  0  0  0  0  0  0  0
  1  2  1  0  0  0  0
  2  3  2  0  0  0  0
  3  4  1  0  0  0  0
  4  5  2  0  0  0  0
  4  9  1  0  0  0  0
  5  6  1  0  0  0  0
  6  7  2  0  0  0  0
  7  8  1  0  0  0  0
  7 10  1  0  0  0  0
  8  9  2  0  0  0  0
 10 11  1  0  0  0  0
M  END
>  <DSSTox_RID>
20087

>  <DSSTox_CID>
87

>  <DSSTox_Generic_SID>
20087

>  <DSSTox_FileID>
88_CPDBAS_v5d

>  <STRUCTURE_Formula>
C10H12O

>  <STRUCTURE_MolecularWeight>
148.2017

>  <STRUCTURE_ChemicalType>
defined organic

>  <STRUCTURE_TestedForm_DefinedOrganic>
parent

>  <STRUCTURE_Shown>
tested chemical

>  <TestSubstance_ChemicalName>
trans-Anethole

>  <TestSubstance_CASRN>
4180-23-8

>  <TestSubstance_Description>
single chemical compound

>  <ChemicalNote>
stereochem

>  <STRUCTURE_ChemicalName_IUPAC>
1-(methyloxy)-4-[(1E)-prop-1-en-1-yl]benzene

>  <STRUCTURE_SMILES>
C/C=C/C1=CC=C(C=C1)OC

>  <STRUCTURE_Parent_SMILES>
C/C=C/C1=CC=C(C=C1)OC

>  <STRUCTURE_InChI>
InChI=1/C10H12O/c1-3-4-9-5-7-10(11-2)8-6-9/h3-8H,1-2H3/b4-3+

>  <STRUCTURE_InChIKey>
RUVINXPYWBROJD-ONEGZZNKBR

>  <StudyType>
Carcinogenicity

>  <Endpoint>
TD50; Tumor Target Sites

>  <Species>
rat

>  <ActivityScore_CPDBAS_Rat>
0

>  <TD50_Rat_Note>
no positive results

>  <TargetSites_Rat_Male>
no positive results

>  <TargetSites_Rat_Female>
no positive results

>  <ActivityOutcome_CPDBAS_Rat>
inactive

>  <ActivityOutcome_CPDBAS_SingleCellCall>
inactive

>  <ActivityOutcome_CPDBAS_MultiCellCall>
inactive

>  <ActivityOutcome_CPDBAS_MultiCellCall_Details>
multisex inactive

>  <ChemicalPage_URL>
http://potency.berkeley.edu/chempages/trans-ANETHOLE.html

$$$$



 17 18  0  0  1  0  0  0  0  0999 V2000
    3.5180   -1.6894    0.0000 C   0  0  1  0  0  0  0  0  0  0  0  0
    4.5813   -0.9143    0.0000 O   0  0  0  0  0  0  0  0  0  0  0  0
    3.9254   -2.9615    0.0000 C   0  0  1  0  0  0  0  0  0  0  0  0
    5.6745   -1.6894    0.0000 C   0  0  1  0  0  0  0  0  0  0  0  0
    5.2571   -2.9615    0.0000 C   0  0  2  0  0  0  0  0  0  0  0  0
    6.9962   -1.6894    0.0000 O   0  0  0  0  0  0  0  0  0  0  0  0
    6.3403   -3.7465    0.0000 O   0  0  0  0  0  0  0  0  0  0  0  0
    3.1403   -4.0347    0.0000 O   0  0  0  0  0  0  0  0  0  0  0  0
    2.2559   -1.2820    0.0000 C   0  0  1  0  0  0  0  0  0  0  0  0
    1.2522   -2.1863    0.0000 C   0  0  0  0  0  0  0  0  0  0  0  0
    1.9776    0.0000    0.0000 O   0  0  0  0  0  0  0  0  0  0  0  0
    0.0000   -1.7689    0.0000 O   0  0  0  0  0  0  0  0  0  0  0  0
    7.3937   -2.9615    0.0000 C   0  0  1  0  0  0  0  0  0  0  0  0
    8.6658   -3.3788    0.0000 C   0  0  0  0  0  0  0  0  0  0  0  0
    9.9378   -3.7962    0.0000 Cl  0  0  0  0  0  0  0  0  0  0  0  0
    9.0732   -2.1068    0.0000 Cl  0  0  0  0  0  0  0  0  0  0  0  0
    8.2484   -4.6310    0.0000 Cl  0  0  0  0  0  0  0  0  0  0  0  0
  1  2  1  1  0  0  0
  1  3  1  0  0  0  0
  1  9  1  0  0  0  0
  2  4  1  0  0  0  0
  3  5  1  0  0  0  0
  3  8  1  1  0  0  0
  4  5  1  0  0  0  0
  4  6  1  6  0  0  0
  5  7  1  6  0  0  0
  6 13  1  0  0  0  0
  7 13  1  0  0  0  0
  9 10  1  0  0  0  0
  9 11  1  1  0  0  0
 10 12  1  0  0  0  0
 13 14  1  6  0  0  0
 14 15  1  0  0  0  0
 14 16  1  0  0  0  0
 14 17  1  0  0  0  0
M  END
>  <DSSTox_RID>
20088

>  <DSSTox_CID>
88

>  <DSSTox_Generic_SID>
20088

>  <DSSTox_FileID>
89_CPDBAS_v5d

>  <STRUCTURE_Formula>
C8H11Cl3O6

>  <STRUCTURE_MolecularWeight>
309.52834

>  <STRUCTURE_ChemicalType>
defined organic

>  <STRUCTURE_TestedForm_DefinedOrganic>
parent

>  <STRUCTURE_Shown>
tested chemical

>  <TestSubstance_ChemicalName>
Anhydroglucochloral

>  <TestSubstance_CASRN>
15879-93-3

>  <TestSubstance_Description>
single chemical compound

>  <ChemicalNote>
Chlorlose-alpha, stereochem

>  <STRUCTURE_ChemicalName_IUPAC>
1,2-O-[(1R)-2,2,2-trichloroethylidene]-alpha-D-glucofuranose

>  <STRUCTURE_SMILES>
O[C@H]1[C@@H]([C@H](O)CO)O[C@H]2[C@@H]1O[C@@H]([C@@](Cl)(Cl)Cl)O2

>  <STRUCTURE_Parent_SMILES>
O[C@H]1[C@@H]([C@H](O)CO)O[C@H]2[C@@H]1O[C@@H]([C@@](Cl)(Cl)Cl)O2

>  <STRUCTURE_InChI>
InChI=1/C8H11Cl3O6/c9-8(10,11)7-16-5-3(14)4(2(13)1-12)15-6(5)17-7/h2-7,12-14H,1H2/t2-,3+,4-,5-,6-,7-/m1/s1

>  <STRUCTURE_InChIKey>
OJYGBLRPYBAHRT-IPQSZEQABF

>  <StudyType>
Carcinogenicity

>  <Endpoint>
TD50; Tumor Target Sites

>  <Species>
mouse

>  <ActivityScore_CPDBAS_Mouse>
0

>  <TD50_Mouse_Note>
no positive results

>  <TargetSites_Mouse_Male>
no positive results

>  <TargetSites_Mouse_Female>
no positive results

>  <ActivityOutcome_CPDBAS_Mouse>
inactive

>  <ActivityOutcome_CPDBAS_SingleCellCall>
inactive

>  <ActivityOutcome_CPDBAS_MultiCellCall>
inactive

>  <ActivityOutcome_CPDBAS_MultiCellCall_Details>
multisex inactive

>  <Note_CPDBAS>
structure modified v5b

>  <ChemicalPage_URL>
http://potency.berkeley.edu/chempages/ANHYDROGLUCOCHLORAL.html

$$$$



 16 17  0  0  0  0  0  0  0  0999 V2000
    0.0000   -3.9909    0.0000 Cl  0  0  0  0  0  0  0  0  0  0  0  0
    1.1529   -3.3297    0.0000 C   0  0  0  0  0  0  0  0  0  0  0  0
    1.1529   -1.9995    0.0000 N   0  0  0  0  0  0  0  0  0  0  0  0
    2.3058   -1.3303    0.0000 C   0  0  0  0  0  0  0  0  0  0  0  0
    3.4587   -1.9995    0.0000 N   0  0  0  0  0  0  0  0  0  0  0  0
    3.4587   -3.3297    0.0000 C   0  0  0  0  0  0  0  0  0  0  0  0
    2.3058   -3.9909    0.0000 N   0  0  0  0  0  0  0  0  0  0  0  0
    4.6036   -3.9909    0.0000 N   0  0  0  0  0  0  0  0  0  0  0  0
    5.7565   -3.3297    0.0000 C   0  0  0  0  0  0  0  0  0  0  0  0
    5.7565   -1.9995    0.0000 C   0  0  0  0  0  0  0  0  0  0  0  0
    6.9094   -1.3303    0.0000 C   0  0  0  0  0  0  0  0  0  0  0  0
    8.0623   -1.9995    0.0000 C   0  0  0  0  0  0  0  0  0  0  0  0
    8.0623   -3.3297    0.0000 C   0  0  0  0  0  0  0  0  0  0  0  0
    6.9094   -3.9909    0.0000 C   0  0  0  0  0  0  0  0  0  0  0  0
    6.9094   -5.3211    0.0000 Cl  0  0  0  0  0  0  0  0  0  0  0  0
    2.3058    0.0000    0.0000 Cl  0  0  0  0  0  0  0  0  0  0  0  0
  1  2  1  0  0  0  0
  2  3  2  0  0  0  0
  2  7  1  0  0  0  0
  3  4  1  0  0  0  0
  4  5  2  0  0  0  0
  4 16  1  0  0  0  0
  5  6  1  0  0  0  0
  6  7  2  0  0  0  0
  6  8  1  0  0  0  0
  8  9  1  0  0  0  0
  9 10  2  0  0  0  0
  9 14  1  0  0  0  0
 10 11  1  0  0  0  0
 11 12  2  0  0  0  0
 12 13  1  0  0  0  0
 13 14  2  0  0  0  0
 14 15  1  0  0  0  0
M  END
>  <DSSTox_RID>
20089

>  <DSSTox_CID>
89

>  <DSSTox_Generic_SID>
20089

>  <DSSTox_FileID>
90_CPDBAS_v5d

>  <STRUCTURE_Formula>
C9H5Cl3N4

>  <STRUCTURE_MolecularWeight>
275.5218

>  <STRUCTURE_ChemicalType>
defined organic

>  <STRUCTURE_TestedForm_DefinedOrganic>
parent

>  <STRUCTURE_Shown>
tested chemical

>  <TestSubstance_ChemicalName>
Anilazine

>  <TestSubstance_CASRN>
101-05-3

>  <TestSubstance_Description>
single chemical compound

>  <STRUCTURE_ChemicalName_IUPAC>
4,6-dichloro-N-(2-chlorophenyl)-1,3,5-triazin-2-amine

>  <STRUCTURE_SMILES>
ClC1=NC(=NC(=N1)NC2=CC=CC=C2Cl)Cl

>  <STRUCTURE_Parent_SMILES>
ClC1=NC(=NC(=N1)NC2=CC=CC=C2Cl)Cl

>  <STRUCTURE_InChI>
InChI=1/C9H5Cl3N4/c10-5-3-1-2-4-6(5)13-9-15-7(11)14-8(12)16-9/h1-4H,(H,13,14,15,16)/f/h13H

>  <STRUCTURE_InChIKey>
IMHBYKMAHXWHRP-NDKGDYFDCD

>  <StudyType>
Carcinogenicity

>  <Endpoint>
TD50; Tumor Target Sites

>  <Species>
rat; mouse

>  <ActivityOutcome_CPDBAS_Mutagenicity>
inactive

>  <ActivityScore_CPDBAS_Rat>
0

>  <TD50_Rat_Note>
no positive results

>  <TargetSites_Rat_Male>
no positive results

>  <TargetSites_Rat_Female>
no positive results

>  <ActivityOutcome_CPDBAS_Rat>
inactive

>  <ActivityScore_CPDBAS_Mouse>
0

>  <TD50_Mouse_Note>
no positive results

>  <TargetSites_Mouse_Male>
no positive results

>  <TargetSites_Mouse_Female>
no positive results

>  <ActivityOutcome_CPDBAS_Mouse>
inactive

>  <ActivityOutcome_CPDBAS_SingleCellCall>
inactive

>  <ActivityOutcome_CPDBAS_MultiCellCall>
inactive

>  <ActivityOutcome_CPDBAS_MultiCellCall_Details>
multisex inactive; multispecies inactive

>  <NTP_TechnicalReport>
TR 104

>  <ChemicalPage_URL>
http://potency.berkeley.edu/chempages/ANILAZINE.html

$$$$



  7  7  0  0  0  0  0  0  0  0999 V2000
    0.0000   -1.1496    0.0000 N   0  0  0  0  0  0  0  0  0  0  0  0
    1.3292   -1.1496    0.0000 C   0  0  0  0  0  0  0  0  0  0  0  0
    1.9958    0.0000    0.0000 C   0  0  0  0  0  0  0  0  0  0  0  0
    3.3250    0.0000    0.0000 C   0  0  0  0  0  0  0  0  0  0  0  0
    3.9916   -1.1496    0.0000 C   0  0  0  0  0  0  0  0  0  0  0  0
    3.3250   -2.3032    0.0000 C   0  0  0  0  0  0  0  0  0  0  0  0
    1.9958   -2.3032    0.0000 C   0  0  0  0  0  0  0  0  0  0  0  0
  1  2  1  0  0  0  0
  2  3  2  0  0  0  0
  2  7  1  0  0  0  0
  3  4  1  0  0  0  0
  4  5  2  0  0  0  0
  5  6  1  0  0  0  0
  6  7  2  0  0  0  0
M  END
>  <DSSTox_RID>
20090

>  <DSSTox_CID>
90

>  <DSSTox_Generic_SID>
20090

>  <DSSTox_FileID>
91_CPDBAS_v5d

>  <STRUCTURE_Formula>
C6H7N

>  <STRUCTURE_MolecularWeight>
93.1265

>  <STRUCTURE_ChemicalType>
defined organic

>  <STRUCTURE_TestedForm_DefinedOrganic>
parent

>  <STRUCTURE_Shown>
tested chemical

>  <TestSubstance_ChemicalName>
Aniline

>  <TestSubstance_CASRN>
62-53-3

>  <TestSubstance_Description>
single chemical compound

>  <STRUCTURE_ChemicalName_IUPAC>
aniline

>  <STRUCTURE_SMILES>
NC1=CC=CC=C1

>  <STRUCTURE_Parent_SMILES>
NC1=CC=CC=C1

>  <STRUCTURE_InChI>
InChI=1/C6H7N/c7-6-4-2-1-3-5-6/h1-5H,7H2

>  <STRUCTURE_InChIKey>
PAYRUJLWNCNPSJ-UHFFFAOYAP

>  <StudyType>
Carcinogenicity

>  <Endpoint>
TD50; Tumor Target Sites

>  <Species>
rat

>  <ActivityOutcome_CPDBAS_Mutagenicity>
inactive

>  <ActivityScore_CPDBAS_Rat>
0

>  <TD50_Rat_Note>
no positive results

>  <TargetSites_Rat_Male>
no positive results

>  <ActivityOutcome_CPDBAS_Rat>
inactive

>  <ActivityOutcome_CPDBAS_SingleCellCall>
inactive

>  <ChemicalPage_URL>
http://potency.berkeley.edu/chempages/ANILINE.html

$$$$



 10 10  0  0  0  0  0  0  0  0999 V2000
    2.6582    0.0000    0.0000 N   0  0  0  0  0  0  0  0  0  0  0  0
    1.9971   -1.1499    0.0000 C   0  0  0  0  0  0  0  0  0  0  0  0
    2.6582   -2.3044    0.0000 C   0  0  0  0  0  0  0  0  0  0  0  0
    1.9971   -3.4542    0.0000 C   0  0  0  0  0  0  0  0  0  0  0  0
    0.6657   -3.4542    0.0000 C   0  0  0  0  0  0  0  0  0  0  0  0
    0.0000   -2.3044    0.0000 C   0  0  0  0  0  0  0  0  0  0  0  0
    0.6657   -1.1499    0.0000 C   0  0  0  0  0  0  0  0  0  0  0  0
    3.9896   -2.3044    0.0000 C   0  0  0  0  0  0  0  0  0  0  0  0
    4.6553   -1.1499    0.0000 O   0  0  0  0  0  0  0  0  0  0  0  0
    4.6553   -3.4542    0.0000 O   0  0  0  0  0  0  0  0  0  0  0  0
  1  2  1  0  0  0  0
  2  3  2  0  0  0  0
  2  7  1  0  0  0  0
  3  4  1  0  0  0  0
  3  8  1  0  0  0  0
  4  5  2  0  0  0  0
  5  6  1  0  0  0  0
  6  7  2  0  0  0  0
  8  9  2  0  0  0  0
  8 10  1  0  0  0  0
M  END
>  <DSSTox_RID>
20094

>  <DSSTox_CID>
94

>  <DSSTox_Generic_SID>
20094

>  <DSSTox_FileID>
95_CPDBAS_v5d

>  <STRUCTURE_Formula>
C7H7NO2

>  <STRUCTURE_MolecularWeight>
137.136

>  <STRUCTURE_ChemicalType>
defined organic

>  <STRUCTURE_TestedForm_DefinedOrganic>
parent

>  <STRUCTURE_Shown>
tested chemical

>  <TestSubstance_ChemicalName>
Anthranilic acid

>  <TestSubstance_CASRN>
118-92-3

>  <TestSubstance_Description>
single chemical compound

>  <STRUCTURE_ChemicalName_IUPAC>
2-aminobenzoic acid

>  <STRUCTURE_SMILES>
NC1=C(C=CC=C1)C(=O)O

>  <STRUCTURE_Parent_SMILES>
NC1=C(C=CC=C1)C(=O)O

>  <STRUCTURE_InChI>
InChI=1/C7H7NO2/c8-6-4-2-1-3-5(6)7(9)10/h1-4H,8H2,(H,9,10)/f/h9H

>  <STRUCTURE_InChIKey>
RWZYAGGXGHYGMB-BGGKNDAXCO

>  <StudyType>
Carcinogenicity

>  <Endpoint>
TD50; Tumor Target Sites

>  <Species>
rat; mouse

>  <ActivityOutcome_CPDBAS_Mutagenicity>
inactive

>  <ActivityScore_CPDBAS_Rat>
0

>  <TD50_Rat_Note>
no positive results

>  <TargetSites_Rat_Male>
no positive results

>  <TargetSites_Rat_Female>
no positive results

>  <ActivityOutcome_CPDBAS_Rat>
inactive

>  <ActivityScore_CPDBAS_Mouse>
0

>  <TD50_Mouse_Note>
no positive results

>  <TargetSites_Mouse_Male>
no positive results

>  <TargetSites_Mouse_Female>
no positive results

>  <ActivityOutcome_CPDBAS_Mouse>
inactive

>  <ActivityOutcome_CPDBAS_SingleCellCall>
inactive

>  <ActivityOutcome_CPDBAS_MultiCellCall>
inactive

>  <ActivityOutcome_CPDBAS_MultiCellCall_Details>
multisex inactive; multispecies inactive

>  <NTP_TechnicalReport>
TR 36

>  <ChemicalPage_URL>
http://potency.berkeley.edu/chempages/ANTHRANILIC%20ACID.html

$$$$



 16 18  0  0  0  0  0  0  0  0999 V2000
    0.0000   -4.6544    0.0000 O   0  0  0  0  0  0  0  0  0  0  0  0
    1.1503   -3.9895    0.0000 C   0  0  0  0  0  0  0  0  0  0  0  0
    2.3006   -4.6544    0.0000 C   0  0  0  0  0  0  0  0  0  0  0  0
    3.4576   -3.9895    0.0000 C   0  0  0  0  0  0  0  0  0  0  0  0
    4.6079   -4.6544    0.0000 C   0  0  0  0  0  0  0  0  0  0  0  0
    4.6079   -5.9842    0.0000 C   0  0  0  0  0  0  0  0  0  0  0  0
    3.4576   -6.6491    0.0000 C   0  0  0  0  0  0  0  0  0  0  0  0
    2.3006   -5.9842    0.0000 C   0  0  0  0  0  0  0  0  0  0  0  0
    3.4576   -2.6597    0.0000 C   0  0  0  0  0  0  0  0  0  0  0  0
    4.6079   -1.9947    0.0000 O   0  0  0  0  0  0  0  0  0  0  0  0
    2.3006   -1.9947    0.0000 C   0  0  0  0  0  0  0  0  0  0  0  0
    1.1503   -2.6597    0.0000 C   0  0  0  0  0  0  0  0  0  0  0  0
    0.0000   -1.9947    0.0000 C   0  0  0  0  0  0  0  0  0  0  0  0
    0.0000   -0.6649    0.0000 C   0  0  0  0  0  0  0  0  0  0  0  0
    1.1503    0.0000    0.0000 C   0  0  0  0  0  0  0  0  0  0  0  0
    2.3006   -0.6649    0.0000 C   0  0  0  0  0  0  0  0  0  0  0  0
  1  2  2  0  0  0  0
  2  3  1  0  0  0  0
  2 12  1  0  0  0  0
  3  4  2  0  0  0  0
  3  8  1  0  0  0  0
  4  5  1  0  0  0  0
  4  9  1  0  0  0  0
  5  6  2  0  0  0  0
  6  7  1  0  0  0  0
  7  8  2  0  0  0  0
  9 10  2  0  0  0  0
  9 11  1  0  0  0  0
 11 12  2  0  0  0  0
 11 16  1  0  0  0  0
 12 13  1  0  0  0  0
 13 14  2  0  0  0  0
 14 15  1  0  0  0  0
 15 16  2  0  0  0  0
M  END
>  <DSSTox_RID>
20095

>  <DSSTox_CID>
95

>  <DSSTox_Generic_SID>
20095

>  <DSSTox_FileID>
96_CPDBAS_v5d

>  <STRUCTURE_Formula>
C14H8O2

>  <STRUCTURE_MolecularWeight>
208.2121

>  <STRUCTURE_ChemicalType>
defined organic

>  <STRUCTURE_TestedForm_DefinedOrganic>
parent

>  <STRUCTURE_Shown>
tested chemical

>  <TestSubstance_ChemicalName>
9,10-Anthraquinone

>  <TestSubstance_CASRN>
84-65-1

>  <TestSubstance_Description>
single chemical compound

>  <STRUCTURE_ChemicalName_IUPAC>
9,10-anthraquinone

>  <STRUCTURE_SMILES>
O=C1C2=C(C=CC=C2)C(=O)C3=C1C=CC=C3

>  <STRUCTURE_Parent_SMILES>
O=C1C2=C(C=CC=C2)C(=O)C3=C1C=CC=C3

>  <STRUCTURE_InChI>
InChI=1/C14H8O2/c15-13-9-5-1-2-6-10(9)14(16)12-8-4-3-7-11(12)13/h1-8H

>  <STRUCTURE_InChIKey>
RZVHIXYEVGDQDX-UHFFFAOYAA

>  <StudyType>
Carcinogenicity

>  <Endpoint>
TD50; Tumor Target Sites

>  <Species>
mouse

>  <ActivityOutcome_CPDBAS_Mutagenicity>
active

>  <ActivityScore_CPDBAS_Mouse>
0

>  <TD50_Mouse_Note>
no positive results

>  <TargetSites_Mouse_Male>
no positive results

>  <TargetSites_Mouse_Female>
no positive results

>  <ActivityOutcome_CPDBAS_Mouse>
inactive

>  <ActivityOutcome_CPDBAS_SingleCellCall>
inactive

>  <ActivityOutcome_CPDBAS_MultiCellCall>
inactive

>  <ActivityOutcome_CPDBAS_MultiCellCall_Details>
multisex inactive

>  <ChemicalPage_URL>
http://potency.berkeley.edu/chempages/9,10-ANTHRAQUINONE.html

$$$$



 21 21  0  0  0  0  0  0  0  0999 V2000
    8.0682   -5.1439    0.0000 C   0  0  0  0  0  0  0  0  0  0  0  0
    8.0682   -3.8092    0.0000 C   0  0  3  0  0  0  0  0  0  0  0  0
    6.9285   -3.1493    0.0000 C   0  0  0  0  0  0  0  0  0  0  0  0
    5.7737   -3.8092    0.0000 O   0  0  0  0  0  0  0  0  0  0  0  0
    4.6190   -3.1493    0.0000 C   0  0  0  0  0  0  0  0  0  0  0  0
    3.4642   -3.8092    0.0000 C   0  0  0  0  0  0  0  0  0  0  0  0
    2.3095   -3.1493    0.0000 C   0  0  0  0  0  0  0  0  0  0  0  0
    2.3095   -1.8146    0.0000 C   0  0  0  0  0  0  0  0  0  0  0  0
    3.4642   -1.1547    0.0000 C   0  0  0  0  0  0  0  0  0  0  0  0
    4.6190   -1.8146    0.0000 C   0  0  0  0  0  0  0  0  0  0  0  0
    1.1547   -1.1547    0.0000 C   0  0  0  0  0  0  0  0  0  0  0  0
    0.0000   -0.4799    0.0000 C   0  0  0  0  0  0  0  0  0  0  0  0
    1.8146    0.0000    0.0000 C   0  0  0  0  0  0  0  0  0  0  0  0
    0.4949   -2.2945    0.0000 C   0  0  0  0  0  0  0  0  0  0  0  0
    9.2230   -3.1493    0.0000 O   0  0  0  0  0  0  0  0  0  0  0  0
   10.3777   -3.8092    0.0000 S   0  0  3  0  0  0  0  0  0  0  0  0
   10.3777   -5.1439    0.0000 O   0  0  0  0  0  0  0  0  0  0  0  0
   11.5325   -3.1493    0.0000 O   0  0  0  0  0  0  0  0  0  0  0  0
   12.6872   -3.8092    0.0000 C   0  0  0  0  0  0  0  0  0  0  0  0
   13.8420   -3.1493    0.0000 C   0  0  0  0  0  0  0  0  0  0  0  0
   14.9967   -3.8092    0.0000 Cl  0  0  0  0  0  0  0  0  0  0  0  0
  1  2  1  0  0  0  0
  2  3  1  0  0  0  0
  2 15  1  0  0  0  0
  3  4  1  0  0  0  0
  4  5  1  0  0  0  0
  5  6  2  0  0  0  0
  5 10  1  0  0  0  0
  6  7  1  0  0  0  0
  7  8  2  0  0  0  0
  8  9  1  0  0  0  0
  8 11  1  0  0  0  0
  9 10  2  0  0  0  0
 11 12  1  0  0  0  0
 11 13  1  0  0  0  0
 11 14  1  0  0  0  0
 15 16  1  0  0  0  0
 16 17  2  0  0  0  0
 16 18  1  0  0  0  0
 18 19  1  0  0  0  0
 19 20  1  0  0  0  0
 20 21  1  0  0  0  0
M  END
>  <DSSTox_RID>
20097

>  <DSSTox_CID>
97

>  <DSSTox_Generic_SID>
20097

>  <DSSTox_FileID>
98_CPDBAS_v5d

>  <STRUCTURE_Formula>
C15H23ClO4S

>  <STRUCTURE_MolecularWeight>
334.8587

>  <STRUCTURE_ChemicalType>
defined organic

>  <STRUCTURE_TestedForm_DefinedOrganic>
parent

>  <STRUCTURE_Shown>
tested chemical

>  <TestSubstance_ChemicalName>
Aramite

>  <TestSubstance_CASRN>
140-57-8

>  <TestSubstance_Description>
single chemical compound

>  <STRUCTURE_ChemicalName_IUPAC>
2-chloroethyl 2-{[4-(1,1-dimethylethyl)phenyl]oxy}-1-methylethyl sulfite

>  <STRUCTURE_SMILES>
CC(COC1=CC=C(C=C1)C(C)(C)C)OS(=O)OCCCl

>  <STRUCTURE_Parent_SMILES>
CC(COC1=CC=C(C=C1)C(C)(C)C)OS(=O)OCCCl

>  <STRUCTURE_InChI>
InChI=1/C15H23ClO4S/c1-12(20-21(17)19-10-9-16)11-18-14-7-5-13(6-8-14)15(2,3)4/h5-8,12H,9-11H2,1-4H3

>  <STRUCTURE_InChIKey>
YKFRAOGHWKADFJ-UHFFFAOYAL

>  <StudyType>
Carcinogenicity

>  <Endpoint>
TD50; Tumor Target Sites

>  <Species>
rat; mouse

>  <TD50_Rat_mg>
96.7

>  <TD50_Rat_mmol>
0.289

>  <ActivityScore_CPDBAS_Rat>
31

>  <TD50_Rat_Note>
TD50 is harmonic mean of more than one positive test

>  <TargetSites_Rat_BothSexes>
liver

>  <ActivityOutcome_CPDBAS_Rat>
active

>  <TD50_Mouse_mg>
158

>  <TD50_Mouse_mmol>
0.472

>  <ActivityScore_CPDBAS_Mouse>
32

>  <TargetSites_Mouse_Male>
liver

>  <TargetSites_Mouse_Female>
no positive results

>  <ActivityOutcome_CPDBAS_Mouse>
active

>  <ActivityOutcome_CPDBAS_SingleCellCall>
active

>  <ActivityOutcome_CPDBAS_MultiCellCall>
active

>  <ActivityOutcome_CPDBAS_MultiCellCall_Details>
multispecies active

>  <ChemicalPage_URL>
http://potency.berkeley.edu/chempages/ARAMITE.html

$$$$



 12 12  0  0  1  0  0  0  0  0999 V2000
    3.5286   -1.7157    0.0000 C   0  0  1  0  0  0  0  0  0  0  0  0
    4.5913   -0.9308    0.0000 O   0  0  0  0  0  0  0  0  0  0  0  0
    3.9175   -2.9798    0.0000 C   0  0  0  0  0  0  0  0  0  0  0  0
    5.6610   -1.7157    0.0000 C   0  0  0  0  0  0  0  0  0  0  0  0
    5.2442   -2.9798    0.0000 C   0  0  0  0  0  0  0  0  0  0  0  0
    3.1465   -4.0565    0.0000 O   0  0  0  0  0  0  0  0  0  0  0  0
    6.0291   -4.0565    0.0000 O   0  0  0  0  0  0  0  0  0  0  0  0
    6.9460   -1.2989    0.0000 O   0  0  0  0  0  0  0  0  0  0  0  0
    2.2436   -1.2989    0.0000 C   0  0  2  0  0  0  0  0  0  0  0  0
    1.2503   -2.1810    0.0000 C   0  0  0  0  0  0  0  0  0  0  0  0
    1.9727    0.0000    0.0000 O   0  0  0  0  0  0  0  0  0  0  0  0
    0.0000   -1.7643    0.0000 O   0  0  0  0  0  0  0  0  0  0  0  0
  1  2  1  1  0  0  0
  1  3  1  0  0  0  0
  1  9  1  0  0  0  0
  2  4  1  0  0  0  0
  3  5  2  0  0  0  0
  3  6  1  0  0  0  0
  4  5  1  0  0  0  0
  4  8  2  0  0  0  0
  5  7  1  0  0  0  0
  9 10  1  0  0  0  0
  9 11  1  6  0  0  0
 10 12  1  0  0  0  0
M  END
>  <DSSTox_RID>
20106

>  <DSSTox_CID>
106

>  <DSSTox_Generic_SID>
20106

>  <DSSTox_FileID>
109_CPDBAS_v5d

>  <STRUCTURE_Formula>
C6H8O6

>  <STRUCTURE_MolecularWeight>
176.1241

>  <STRUCTURE_ChemicalType>
defined organic

>  <STRUCTURE_TestedForm_DefinedOrganic>
parent

>  <STRUCTURE_Shown>
tested chemical

>  <TestSubstance_ChemicalName>
l-Ascorbic acid

>  <TestSubstance_CASRN>
50-81-7

>  <TestSubstance_Description>
single chemical compound

>  <ChemicalNote>
stereochem, tautomers

>  <STRUCTURE_ChemicalName_IUPAC>
L-ascorbic acid

>  <STRUCTURE_SMILES>
OC=1[C@H](OC(=O)C=1O)[C@@H](O)CO

>  <STRUCTURE_Parent_SMILES>
OC=1[C@H](OC(=O)C=1O)[C@@H](O)CO

>  <STRUCTURE_InChI>
InChI=1/C6H8O6/c7-1-2(8)5-3(9)4(10)6(11)12-5/h2,5,7-10H,1H2/t2-,5+/m0/s1

>  <STRUCTURE_InChIKey>
CIWBSHSKHKDKBQ-JLAZNSOCBT

>  <StudyType>
Carcinogenicity

>  <Endpoint>
TD50; Tumor Target Sites

>  <Species>
rat; mouse

>  <ActivityOutcome_CPDBAS_Mutagenicity>
inactive

>  <ActivityScore_CPDBAS_Rat>
0

>  <TD50_Rat_Note>
no positive results

>  <TargetSites_Rat_Male>
no positive results

>  <TargetSites_Rat_Female>
no positive results

>  <ActivityOutcome_CPDBAS_Rat>
inactive

>  <ActivityScore_CPDBAS_Mouse>
0

>  <TD50_Mouse_Note>
no positive results

>  <TargetSites_Mouse_Male>
no positive results

>  <TargetSites_Mouse_Female>
no positive results

>  <ActivityOutcome_CPDBAS_Mouse>
inactive

>  <ActivityOutcome_CPDBAS_SingleCellCall>
inactive

>  <ActivityOutcome_CPDBAS_MultiCellCall>
inactive

>  <ActivityOutcome_CPDBAS_MultiCellCall_Details>
multisex inactive; multispecies inactive

>  <NTP_TechnicalReport>
TR 247

>  <ChemicalPage_URL>
http://potency.berkeley.edu/chempages/L-ASCORBIC%20ACID.html

$$$$



 21 21  0  0  1  0  0  0  0  0999 V2000
    0.0000   -4.6020    0.0000 O   0  0  0  0  0  0  0  0  0  0  0  0
    0.6609   -5.7546    0.0000 C   0  0  0  0  0  0  0  0  0  0  0  0
    1.9907   -5.7546    0.0000 C   0  0  2  0  0  0  0  0  0  0  0  0
    2.6597   -6.9071    0.0000 C   0  0  0  0  0  0  0  0  0  0  0  0
    3.9895   -6.9071    0.0000 C   0  0  0  0  0  0  0  0  0  0  0  0
    4.6504   -5.7546    0.0000 C   0  0  0  0  0  0  0  0  0  0  0  0
    5.9802   -5.7546    0.0000 C   0  0  0  0  0  0  0  0  0  0  0  0
    6.6492   -6.9071    0.0000 C   0  0  0  0  0  0  0  0  0  0  0  0
    5.9802   -8.0596    0.0000 C   0  0  0  0  0  0  0  0  0  0  0  0
    4.6504   -8.0596    0.0000 C   0  0  0  0  0  0  0  0  0  0  0  0
    2.6597   -4.6020    0.0000 N   0  0  0  0  0  0  0  0  0  0  0  0
    1.9907   -3.4576    0.0000 C   0  0  0  0  0  0  0  0  0  0  0  0
    0.6609   -3.4576    0.0000 O   0  0  0  0  0  0  0  0  0  0  0  0
    2.6597   -2.3050    0.0000 C   0  0  2  0  0  0  0  0  0  0  0  0
    3.9895   -2.3050    0.0000 C   0  0  0  0  0  0  0  0  0  0  0  0
    4.6504   -1.1525    0.0000 C   0  0  0  0  0  0  0  0  0  0  0  0
    3.9895    0.0000    0.0000 O   0  0  0  0  0  0  0  0  0  0  0  0
    5.9802   -1.1525    0.0000 O   0  0  0  0  0  0  0  0  0  0  0  0
    1.9907   -1.1525    0.0000 N   0  0  0  0  0  0  0  0  0  0  0  0
    0.0000   -6.9071    0.0000 O   0  0  0  0  0  0  0  0  0  0  0  0
    0.6609   -8.0596    0.0000 C   0  0  0  0  0  0  0  0  0  0  0  0
  1  2  2  0  0  0  0
  2  3  1  0  0  0  0
  2 20  1  0  0  0  0
  3  4  1  0  0  0  0
  3 11  1  1  0  0  0
  4  5  1  0  0  0  0
  5  6  2  0  0  0  0
  5 10  1  0  0  0  0
  6  7  1  0  0  0  0
  7  8  2  0  0  0  0
  8  9  1  0  0  0  0
  9 10  2  0  0  0  0
 11 12  1  0  0  0  0
 12 13  2  0  0  0  0
 12 14  1  0  0  0  0
 14 15  1  0  0  0  0
 14 19  1  1  0  0  0
 15 16  1  0  0  0  0
 16 17  2  0  0  0  0
 16 18  1  0  0  0  0
 20 21  1  0  0  0  0
M  END
>  <DSSTox_RID>
20107

>  <DSSTox_CID>
107

>  <DSSTox_Generic_SID>
20107

>  <DSSTox_FileID>
110_CPDBAS_v5d

>  <STRUCTURE_Formula>
C14H18N2O5

>  <STRUCTURE_MolecularWeight>
294.3031

>  <STRUCTURE_ChemicalType>
defined organic

>  <STRUCTURE_TestedForm_DefinedOrganic>
parent

>  <STRUCTURE_Shown>
tested chemical

>  <TestSubstance_ChemicalName>
Aspartame

>  <TestSubstance_CASRN>
22839-47-0

>  <TestSubstance_Description>
single chemical compound

>  <ChemicalNote>
stereochem

>  <STRUCTURE_ChemicalName_IUPAC>
methyl L-alpha-aspartyl-L-phenylalaninate

>  <STRUCTURE_SMILES>
O=C([C@H](CC1=CC=CC=C1)NC(=O)[C@H](CC(=O)O)N)OC

>  <STRUCTURE_Parent_SMILES>
O=C([C@H](CC1=CC=CC=C1)NC(=O)[C@H](CC(=O)O)N)OC

>  <STRUCTURE_InChI>
InChI=1/C14H18N2O5/c1-21-14(20)11(7-9-5-3-2-4-6-9)16-13(19)10(15)8-12(17)18/h2-6,10-11H,7-8,15H2,1H3,(H,16,19)(H,17,18)/t10-,11-/m0/s1/f/h16-17H

>  <STRUCTURE_InChIKey>
IAOZJIPTCAWIRG-VFIKCTIADG

>  <StudyType>
Carcinogenicity

>  <Endpoint>
TD50; Tumor Target Sites

>  <Species>
rat

>  <ActivityScore_CPDBAS_Rat>
0

>  <TD50_Rat_Note>
no positive results

>  <TargetSites_Rat_Male>
no positive results

>  <TargetSites_Rat_Female>
no positive results

>  <ActivityOutcome_CPDBAS_Rat>
inactive

>  <ActivityOutcome_CPDBAS_SingleCellCall>
inactive

>  <ActivityOutcome_CPDBAS_MultiCellCall>
inactive

>  <ActivityOutcome_CPDBAS_MultiCellCall_Details>
multisex inactive

>  <ChemicalPage_URL>
http://potency.berkeley.edu/chempages/ASPARTAME.html

$$$$



 13 13  0  0  0  0  0  0  0  0999 V2000
    0.0000   -5.7579    0.0000 O   0  0  0  0  0  0  0  0  0  0  0  0
    0.6622   -4.6063    0.0000 C   0  0  0  0  0  0  0  0  0  0  0  0
    0.0000   -3.4547    0.0000 O   0  0  0  0  0  0  0  0  0  0  0  0
    1.9922   -4.6063    0.0000 C   0  0  0  0  0  0  0  0  0  0  0  0
    2.6601   -3.4547    0.0000 C   0  0  0  0  0  0  0  0  0  0  0  0
    3.9902   -3.4547    0.0000 C   0  0  0  0  0  0  0  0  0  0  0  0
    4.6524   -4.6063    0.0000 C   0  0  0  0  0  0  0  0  0  0  0  0
    3.9902   -5.7579    0.0000 C   0  0  0  0  0  0  0  0  0  0  0  0
    2.6601   -5.7579    0.0000 C   0  0  0  0  0  0  0  0  0  0  0  0
    1.9922   -2.3031    0.0000 O   0  0  0  0  0  0  0  0  0  0  0  0
    2.6601   -1.1516    0.0000 C   0  0  0  0  0  0  0  0  0  0  0  0
    1.9922    0.0000    0.0000 O   0  0  0  0  0  0  0  0  0  0  0  0
    3.9902   -1.1516    0.0000 C   0  0  0  0  0  0  0  0  0  0  0  0
  1  2  1  0  0  0  0
  2  3  2  0  0  0  0
  2  4  1  0  0  0  0
  4  5  2  0  0  0  0
  4  9  1  0  0  0  0
  5  6  1  0  0  0  0
  5 10  1  0  0  0  0
  6  7  2  0  0  0  0
  7  8  1  0  0  0  0
  8  9  2  0  0  0  0
 10 11  1  0  0  0  0
 11 12  2  0  0  0  0
 11 13  1  0  0  0  0
M  END
>  <DSSTox_RID>
20108

>  <DSSTox_CID>
108

>  <DSSTox_Generic_SID>
20108

>  <DSSTox_FileID>
111_CPDBAS_v5d

>  <STRUCTURE_Formula>
C9H8O4

>  <STRUCTURE_MolecularWeight>
180.1574

>  <STRUCTURE_ChemicalType>
defined organic

>  <STRUCTURE_TestedForm_DefinedOrganic>
parent

>  <STRUCTURE_Shown>
tested chemical

>  <TestSubstance_ChemicalName>
Aspirin

>  <TestSubstance_CASRN>
50-78-2

>  <TestSubstance_Description>
single chemical compound

>  <STRUCTURE_ChemicalName_IUPAC>
2-(acetyloxy)benzoic acid

>  <STRUCTURE_SMILES>
OC(=O)C1=C(C=CC=C1)OC(=O)C

>  <STRUCTURE_Parent_SMILES>
OC(=O)C1=C(C=CC=C1)OC(=O)C

>  <STRUCTURE_InChI>
InChI=1/C9H8O4/c1-6(10)13-8-5-3-2-4-7(8)9(11)12/h2-5H,1H3,(H,11,12)/f/h11H

>  <STRUCTURE_InChIKey>
BSYNRYMUTXBXSQ-WXRBYKJCCW

>  <StudyType>
Carcinogenicity

>  <Endpoint>
TD50; Tumor Target Sites

>  <Species>
rat; mouse

>  <ActivityOutcome_CPDBAS_Mutagenicity>
inactive

>  <ActivityScore_CPDBAS_Rat>
0

>  <TD50_Rat_Note>
no positive results

>  <TargetSites_Rat_Male>
no positive results

>  <TargetSites_Rat_BothSexes>
no positive results

>  <ActivityOutcome_CPDBAS_Rat>
inactive

>  <ActivityScore_CPDBAS_Mouse>
0

>  <TD50_Mouse_Note>
no positive results

>  <TargetSites_Mouse_Male>
no positive results

>  <TargetSites_Mouse_Female>
no positive results

>  <ActivityOutcome_CPDBAS_Mouse>
inactive

>  <ActivityOutcome_CPDBAS_SingleCellCall>
inactive

>  <ActivityOutcome_CPDBAS_MultiCellCall>
inactive

>  <ActivityOutcome_CPDBAS_MultiCellCall_Details>
multisex inactive; multispecies inactive

>  <ChemicalPage_URL>
http://potency.berkeley.edu/chempages/ASPIRIN.html

$$$$



 34 38  0  0  0  0  0  0  0  0999 V2000
    5.3229   -3.4205    0.0000 N   0  0  0  0  0  0  0  0  0  0  0  0
    4.4390   -4.4005    0.0000 C   0  0  0  0  0  0  0  0  0  0  0  0
    6.5528   -3.9778    0.0000 C   0  0  0  0  0  0  0  0  0  0  0  0
    5.0539   -2.1330    0.0000 C   0  0  0  0  0  0  0  0  0  0  0  0
    5.0923   -5.5727    0.0000 C   0  0  0  0  0  0  0  0  0  0  0  0
    3.1130   -4.4005    0.0000 C   0  0  0  0  0  0  0  0  0  0  0  0
    6.3990   -5.2845    0.0000 N   0  0  0  0  0  0  0  0  0  0  0  0
    7.7058   -3.2860    0.0000 N   0  0  0  0  0  0  0  0  0  0  0  0
    3.7856   -1.7103    0.0000 C   0  0  0  0  0  0  0  0  0  0  0  0
    4.4390   -6.7065    0.0000 C   0  0  0  0  0  0  0  0  0  0  0  0
    2.4597   -5.5727    0.0000 C   0  0  0  0  0  0  0  0  0  0  0  0
    8.8395   -3.9778    0.0000 C   0  0  0  0  0  0  0  0  0  0  0  0
    2.8056   -2.5942    0.0000 C   0  0  0  0  0  0  0  0  0  0  0  0
    3.5166   -0.4035    0.0000 C   0  0  0  0  0  0  0  0  0  0  0  0
    3.1130   -6.7065    0.0000 C   0  0  0  0  0  0  0  0  0  0  0  0
   10.0117   -3.2860    0.0000 C   0  0  0  0  0  0  0  0  0  0  0  0
    8.8395   -5.2845    0.0000 C   0  0  0  0  0  0  0  0  0  0  0  0
    1.5373   -2.1907    0.0000 C   0  0  0  0  0  0  0  0  0  0  0  0
    2.2483    0.0000    0.0000 C   0  0  0  0  0  0  0  0  0  0  0  0
   11.1455   -3.9778    0.0000 C   0  0  0  0  0  0  0  0  0  0  0  0
   10.0117   -5.9571    0.0000 C   0  0  0  0  0  0  0  0  0  0  0  0
    1.2491   -0.8840    0.0000 C   0  0  0  0  0  0  0  0  0  0  0  0
   11.1455   -5.2845    0.0000 N   0  0  0  0  0  0  0  0  0  0  0  0
    0.0000   -0.4804    0.0000 F   0  0  0  0  0  0  0  0  0  0  0  0
   12.2985   -5.9571    0.0000 C   0  0  0  0  0  0  0  0  0  0  0  0
   13.4514   -5.2845    0.0000 C   0  0  0  0  0  0  0  0  0  0  0  0
   14.6044   -5.9571    0.0000 C   0  0  0  0  0  0  0  0  0  0  0  0
   15.7574   -5.2845    0.0000 C   0  0  0  0  0  0  0  0  0  0  0  0
   14.6044   -7.3022    0.0000 C   0  0  0  0  0  0  0  0  0  0  0  0
   16.9104   -5.9571    0.0000 C   0  0  0  0  0  0  0  0  0  0  0  0
   15.7574   -7.9556    0.0000 C   0  0  0  0  0  0  0  0  0  0  0  0
   16.9104   -7.3022    0.0000 C   0  0  0  0  0  0  0  0  0  0  0  0
   18.0634   -7.9556    0.0000 O   0  0  0  0  0  0  0  0  0  0  0  0
   19.2163   -7.3022    0.0000 C   0  0  0  0  0  0  0  0  0  0  0  0
  1  2  1  0  0  0  0
  1  3  1  0  0  0  0
  1  4  1  0  0  0  0
  2  5  1  0  0  0  0
  2  6  2  0  0  0  0
  3  7  2  0  0  0  0
  3  8  1  0  0  0  0
  4  9  1  0  0  0  0
  5 10  2  0  0  0  0
  5  7  1  0  0  0  0
  6 11  1  0  0  0  0
  8 12  1  0  0  0  0
  9 13  1  0  0  0  0
  9 14  2  0  0  0  0
 10 15  1  0  0  0  0
 11 15  2  0  0  0  0
 12 16  1  0  0  0  0
 12 17  1  0  0  0  0
 13 18  2  0  0  0  0
 14 19  1  0  0  0  0
 16 20  1  0  0  0  0
 17 21  1  0  0  0  0
 18 22  1  0  0  0  0
 19 22  2  0  0  0  0
 20 23  1  0  0  0  0
 21 23  1  0  0  0  0
 22 24  1  0  0  0  0
 23 25  1  0  0  0  0
 25 26  1  0  0  0  0
 26 27  1  0  0  0  0
 27 28  1  0  0  0  0
 27 29  2  0  0  0  0
 28 30  2  0  0  0  0
 29 31  1  0  0  0  0
 30 32  1  0  0  0  0
 31 32  2  0  0  0  0
 32 33  1  0  0  0  0
 33 34  1  0  0  0  0
M  END
>  <DSSTox_RID>
20110

>  <DSSTox_CID>
110

>  <DSSTox_Generic_SID>
20110

>  <DSSTox_FileID>
113_CPDBAS_v5d

>  <STRUCTURE_Formula>
C28H31FN4O

>  <STRUCTURE_MolecularWeight>
458.5703

>  <STRUCTURE_ChemicalType>
defined organic

>  <STRUCTURE_TestedForm_DefinedOrganic>
parent

>  <STRUCTURE_Shown>
tested chemical

>  <TestSubstance_ChemicalName>
Astemizole

>  <TestSubstance_CASRN>
68844-77-9

>  <TestSubstance_Description>
single chemical compound

>  <STRUCTURE_ChemicalName_IUPAC>
1-[(4-fluorophenyl)methyl]-N-(1-{2-[4-(methyloxy)phenyl]ethyl}piperidin-4-yl)-1H-benzimidazol-2-amine

>  <STRUCTURE_SMILES>
C1=CC=C5C(=C1)N(CC2=CC=C(F)C=C2)C(NC4CCN(CCC3=CC=C(OC)C=C3)CC4)=N5

>  <STRUCTURE_Parent_SMILES>
C1=CC=C5C(=C1)N(CC2=CC=C(F)C=C2)C(NC4CCN(CCC3=CC=C(OC)C=C3)CC4)=N5

>  <STRUCTURE_InChI>
InChI=1/C28H31FN4O/c1-34-25-12-8-21(9-13-25)14-17-32-18-15-24(16-19-32)30-28-31-26-4-2-3-5-27(26)33(28)20-22-6-10-23(29)11-7-22/h2-13,24H,14-20H2,1H3,(H,30,31)/f/h30H

>  <STRUCTURE_InChIKey>
GXDALQBWZGODGZ-SREBMQDQCD

>  <StudyType>
Carcinogenicity

>  <Endpoint>
TD50; Tumor Target Sites

>  <Species>
rat; mouse

>  <ActivityScore_CPDBAS_Rat>
0

>  <TD50_Rat_Note>
no positive results

>  <TargetSites_Rat_Male>
no positive results

>  <TargetSites_Rat_Female>
no positive results

>  <ActivityOutcome_CPDBAS_Rat>
inactive

>  <ActivityScore_CPDBAS_Mouse>
0

>  <TD50_Mouse_Note>
no positive results

>  <TargetSites_Mouse_Male>
no positive results

>  <TargetSites_Mouse_Female>
no positive results

>  <ActivityOutcome_CPDBAS_Mouse>
inactive

>  <ActivityOutcome_CPDBAS_SingleCellCall>
inactive

>  <ActivityOutcome_CPDBAS_MultiCellCall>
inactive

>  <ActivityOutcome_CPDBAS_MultiCellCall_Details>
multisex inactive; multispecies inactive

>  <Note_CPDBAS>
Rat added v2a; Mouse added v2a

>  <ChemicalPage_URL>
http://potency.berkeley.edu/chempages/ASTEMIZOLE.html

$$$$



 14 14  0  0  0  0  0  0  0  0999 V2000
    5.9846    0.0000    0.0000 Cl  0  0  0  0  0  0  0  0  0  0  0  0
    5.3223   -1.1570    0.0000 C   0  0  0  0  0  0  0  0  0  0  0  0
    5.9846   -2.3061    0.0000 N   0  0  0  0  0  0  0  0  0  0  0  0
    5.3223   -3.4551    0.0000 C   0  0  0  0  0  0  0  0  0  0  0  0
    3.9898   -3.4551    0.0000 N   0  0  0  0  0  0  0  0  0  0  0  0
    3.3275   -2.3061    0.0000 C   0  0  0  0  0  0  0  0  0  0  0  0
    3.9898   -1.1570    0.0000 N   0  0  0  0  0  0  0  0  0  0  0  0
    1.9949   -2.3061    0.0000 N   0  0  0  0  0  0  0  0  0  0  0  0
    1.3326   -3.4551    0.0000 C   0  0  0  0  0  0  0  0  0  0  0  0
    1.9949   -4.6122    0.0000 C   0  0  0  0  0  0  0  0  0  0  0  0
    0.0000   -3.4551    0.0000 C   0  0  0  0  0  0  0  0  0  0  0  0
    5.9846   -4.6122    0.0000 N   0  0  0  0  0  0  0  0  0  0  0  0
    7.3172   -4.6122    0.0000 C   0  0  0  0  0  0  0  0  0  0  0  0
    7.9795   -5.7612    0.0000 C   0  0  0  0  0  0  0  0  0  0  0  0
  1  2  1  0  0  0  0
  2  3  2  0  0  0  0
  2  7  1  0  0  0  0
  3  4  1  0  0  0  0
  4  5  2  0  0  0  0
  4 12  1  0  0  0  0
  5  6  1  0  0  0  0
  6  7  2  0  0  0  0
  6  8  1  0  0  0  0
  8  9  1  0  0  0  0
  9 10  1  0  0  0  0
  9 11  1  0  0  0  0
 12 13  1  0  0  0  0
 13 14  1  0  0  0  0
M  END
>  <DSSTox_RID>
20112

>  <DSSTox_CID>
112

>  <DSSTox_Generic_SID>
20112

>  <DSSTox_FileID>
115_CPDBAS_v5d

>  <STRUCTURE_Formula>
C8H14ClN5

>  <STRUCTURE_MolecularWeight>
215.6833

>  <STRUCTURE_ChemicalType>
defined organic

>  <STRUCTURE_TestedForm_DefinedOrganic>
parent

>  <STRUCTURE_Shown>
tested chemical

>  <TestSubstance_ChemicalName>
Atrazine

>  <TestSubstance_CASRN>
1912-24-9

>  <TestSubstance_Description>
single chemical compound

>  <STRUCTURE_ChemicalName_IUPAC>
6-chloro-N-ethyl-N'-isopropyl-1,3,5-triazine-2,4-diamine

>  <STRUCTURE_SMILES>
ClC1=NC(=NC(=N1)NC(C)C)NCC

>  <STRUCTURE_Parent_SMILES>
ClC1=NC(=NC(=N1)NC(C)C)NCC

>  <STRUCTURE_InChI>
InChI=1/C8H14ClN5/c1-4-10-7-12-6(9)13-8(14-7)11-5(2)3/h5H,4H2,1-3H3,(H2,10,11,12,13,14)/f/h10-11H

>  <STRUCTURE_InChIKey>
MXWJVTOOROXGIU-PZWAIHAUCQ

>  <StudyType>
Carcinogenicity

>  <Endpoint>
TD50; Tumor Target Sites

>  <Species>
rat; mouse

>  <ActivityOutcome_CPDBAS_Mutagenicity>
inactive

>  <TD50_Rat_mg>
36.6

>  <TD50_Rat_mmol>
0.17

>  <ActivityScore_CPDBAS_Rat>
34

>  <TD50_Rat_Note>
TD50 is harmonic mean of more than one positive test

>  <TargetSites_Rat_Male>
mammary gland

>  <TargetSites_Rat_Female>
hematopoietic system; mammary gland; uterus

>  <ActivityOutcome_CPDBAS_Rat>
active

>  <ActivityScore_CPDBAS_Mouse>
0

>  <TD50_Mouse_Note>
no positive results

>  <TargetSites_Mouse_Male>
no positive results

>  <TargetSites_Mouse_Female>
no positive results

>  <ActivityOutcome_CPDBAS_Mouse>
inactive

>  <ActivityOutcome_CPDBAS_SingleCellCall>
active

>  <ActivityOutcome_CPDBAS_MultiCellCall>
active

>  <ActivityOutcome_CPDBAS_MultiCellCall_Details>
multisite active; multisex active

>  <Note_CPDBAS>
Rat modified v5a

>  <ChemicalPage_URL>
http://potency.berkeley.edu/chempages/ATRAZINE.html

$$$$



 21 23  0  0  0  0  0  0  0  0999 V2000
    4.5879    4.2169    0.0000 C   0  0  0  0  0  0  0  0  0  0  0  0
    4.5879    2.8000    0.0000 C   0  0  3  0  0  0  0  0  0  0  0  0
    5.8024    4.8916    0.0000 O   0  0  0  0  0  0  0  0  0  0  0  0
    5.8024    2.0916    0.0000 C   0  0  0  0  0  0  0  0  0  0  0  0
    3.3904    2.0916    0.0000 C   0  0  0  0  0  0  0  0  0  0  0  0
    2.1422    2.8000    0.0000 O   0  0  0  0  0  0  0  0  0  0  0  0
    7.0169    2.8000    0.0000 C   0  0  0  0  0  0  0  0  0  0  0  0
    5.8024    0.6916    0.0000 C   0  0  0  0  0  0  0  0  0  0  0  0
    7.0169    0.0000    0.0000 C   0  0  0  0  0  0  0  0  0  0  0  0
    8.2313    2.0916    0.0000 C   0  0  0  0  0  0  0  0  0  0  0  0
    8.2313    0.6916    0.0000 C   0  0  0  0  0  0  0  0  0  0  0  0
    1.5855    7.5735    0.0000 C   0  0  1  0  0  0  0  0  0  0  0  0
    3.3904    6.2241    0.0000 C   0  0  2  0  0  0  0  0  0  0  0  0
    2.5133    6.9494    0.0000 C   0  0  0  0  0  0  0  0  0  0  0  0
    0.8771    6.9494    0.0000 C   0  0  1  0  0  0  0  0  0  0  0  0
    0.6410    8.3157    0.0000 N   0  0  0  0  0  0  0  0  0  0  0  0
    3.1542    7.6072    0.0000 C   0  0  0  0  0  0  0  0  0  0  0  0
    0.0000    5.7349    0.0000 C   0  0  0  0  0  0  0  0  0  0  0  0
    1.0458    6.3759    0.0000 C   0  0  0  0  0  0  0  0  0  0  0  0
    0.4391    9.8530    0.0000 C   0  0  0  0  0  0  0  0  0  0  0  0
    3.3904    5.1614    0.0000 O   0  0  0  0  0  0  0  0  0  0  0  0
  2  1  1  0  0  0  0
  3  1  2  0  0  0  0
 21  1  1  0  0  0  0
  4  2  1  0  0  0  0
  5  2  1  0  0  0  0
  7  4  1  0  0  0  0
  8  4  2  0  0  0  0
  6  5  1  0  0  0  0
 10  7  2  0  0  0  0
  9  8  1  0  0  0  0
 11  9  2  0  0  0  0
 11 10  1  0  0  0  0
 12 16  1  1  0  0  0
 17 12  1  0  0  0  0
 19 12  1  0  0  0  0
 14 13  1  0  0  0  0
 17 13  1  0  0  0  0
 13 21  1  6  0  0  0
 15 14  1  0  0  0  0
 15 16  1  6  0  0  0
 18 15  1  0  0  0  0
 20 16  1  0  0  0  0
 19 18  1  0  0  0  0
M  END
>  <DSSTox_RID>
20113

>  <DSSTox_CID>
113

>  <DSSTox_Generic_SID>
20113

>  <DSSTox_FileID>
116_CPDBAS_v5d

>  <STRUCTURE_Formula>
C17H23NO3

>  <STRUCTURE_MolecularWeight>
289.3736

>  <STRUCTURE_ChemicalType>
defined organic

>  <STRUCTURE_TestedForm_DefinedOrganic>
parent

>  <STRUCTURE_Shown>
tested chemical

>  <TestSubstance_ChemicalName>
Atropine

>  <TestSubstance_CASRN>
51-55-8

>  <TestSubstance_Description>
single chemical compound

>  <ChemicalNote>
stereochem

>  <STRUCTURE_ChemicalName_IUPAC>
(3-endo)-8-methyl-8-azabicyclo[3.2.1]oct-3-yl 3-hydroxy-2-phenylpropanoate

>  <STRUCTURE_SMILES>
O=C(O[C@@H]2C[C@@H](CC3)N(C)[C@H]3C2)C(CO)C1=CC=CC=C1

>  <STRUCTURE_Parent_SMILES>
O=C(O[C@@H]2C[C@@H](CC3)N(C)[C@H]3C2)C(CO)C1=CC=CC=C1

>  <STRUCTURE_InChI>
InChI=1/C17H23NO3/c1-18-13-7-8-14(18)10-15(9-13)21-17(20)16(11-19)12-5-3-2-4-6-12/h2-6,13-16,19H,7-11H2,1H3/t13-,14-,16?/m1/s1

>  <STRUCTURE_InChIKey>
RKUNBYITZUJHSG-UIDSBSESBB

>  <StudyType>
Carcinogenicity

>  <Endpoint>
TD50; Tumor Target Sites

>  <Species>
rat

>  <ActivityScore_CPDBAS_Rat>
0

>  <TD50_Rat_Note>
no positive results

>  <TargetSites_Rat_Male>
no positive results

>  <TargetSites_Rat_Female>
no positive results

>  <ActivityOutcome_CPDBAS_Rat>
inactive

>  <ActivityOutcome_CPDBAS_SingleCellCall>
inactive

>  <ActivityOutcome_CPDBAS_MultiCellCall>
inactive

>  <ActivityOutcome_CPDBAS_MultiCellCall_Details>
multisex inactive

>  <ChemicalPage_URL>
http://potency.berkeley.edu/chempages/ATROPINE.html

$$$$



 17 18  0  0  1  0  0  0  0  0999 V2000
    3.6962   -5.3133    0.0000 C   0  0  2  0  0  0  0  0  0  0  0  0
    3.7116   -4.0042    0.0000 N   0  0  0  0  0  0  0  0  0  0  0  0
    2.6413   -4.5741    0.0000 O   0  0  0  0  0  0  0  0  0  0  0  0
    3.3035   -6.6147    0.0000 C   0  0  1  0  0  0  0  0  0  0  0  0
    4.8513   -3.3497    0.0000 C   0  0  0  0  0  0  0  0  0  0  0  0
    2.5643   -3.3266    0.0000 C   0  0  0  0  0  0  0  0  0  0  0  0
    1.5555   -5.3672    0.0000 C   0  0  1  0  0  0  0  0  0  0  0  0
    1.9636   -6.6147    0.0000 C   0  0  1  0  0  0  0  0  0  0  0  0
    4.1120   -7.6774    0.0000 O   0  0  0  0  0  0  0  0  0  0  0  0
    4.8590   -2.0175    0.0000 N   0  0  0  0  0  0  0  0  0  0  0  0
    6.0064   -4.0196    0.0000 O   0  0  0  0  0  0  0  0  0  0  0  0
    2.5643   -2.0021    0.0000 N   0  0  0  0  0  0  0  0  0  0  0  0
    0.2772   -4.9514    0.0000 C   0  0  0  0  0  0  0  0  0  0  0  0
    1.1782   -7.7005    0.0000 O   0  0  0  0  0  0  0  0  0  0  0  0
    3.7039   -1.3322    0.0000 C   0  0  0  0  0  0  0  0  0  0  0  0
    0.0000   -3.6500    0.0000 O   0  0  0  0  0  0  0  0  0  0  0  0
    3.7193    0.0000    0.0000 N   0  0  0  0  0  0  0  0  0  0  0  0
  1  2  1  1  0  0  0
  1  3  1  0  0  0  0
  1  4  1  0  0  0  0
  2  5  1  0  0  0  0
  2  6  1  0  0  0  0
  3  7  1  0  0  0  0
  4  8  1  0  0  0  0
  4  9  1  6  0  0  0
  5 10  1  0  0  0  0
  5 11  2  0  0  0  0
  6 12  2  0  0  0  0
  7 13  1  1  0  0  0
  7  8  1  0  0  0  0
  8 14  1  6  0  0  0
 10 15  2  0  0  0  0
 12 15  1  0  0  0  0
 13 16  1  0  0  0  0
 15 17  1  0  0  0  0
M  END
>  <DSSTox_RID>
20116

>  <DSSTox_CID>
116

>  <DSSTox_Generic_SID>
20116

>  <DSSTox_FileID>
119_CPDBAS_v5d

>  <STRUCTURE_Formula>
C8H12N4O5

>  <STRUCTURE_MolecularWeight>
244.2047

>  <STRUCTURE_ChemicalType>
defined organic

>  <STRUCTURE_TestedForm_DefinedOrganic>
parent

>  <STRUCTURE_Shown>
tested chemical

>  <TestSubstance_ChemicalName>
5-Azacytidine

>  <TestSubstance_CASRN>
320-67-2

>  <TestSubstance_Description>
single chemical compound

>  <ChemicalNote>
stereochem

>  <STRUCTURE_ChemicalName_IUPAC>
4-amino-1-beta-D-ribofuranosyl-1,3,5-triazin-2(1H)-one

>  <STRUCTURE_SMILES>
N/C1=N/C(=O)N(/C=N1)[C@@H]2O[C@H](CO)[C@@H](O)[C@H]2O

>  <STRUCTURE_Parent_SMILES>
N/C1=N/C(=O)N(/C=N1)[C@@H]2O[C@H](CO)[C@@H](O)[C@H]2O

>  <STRUCTURE_InChI>
InChI=1/C8H12N4O5/c9-7-10-2-12(8(16)11-7)6-5(15)4(14)3(1-13)17-6/h2-6,13-15H,1H2,(H2,9,11,16)/t3-,4-,5-,6-/m1/s1/f/h9H2

>  <STRUCTURE_InChIKey>
NMUSYJAQQFHJEW-QUSQBIOGDY

>  <StudyType>
Carcinogenicity

>  <Endpoint>
TD50; Tumor Target Sites

>  <Species>
rat; mouse

>  <ActivityOutcome_CPDBAS_Mutagenicity>
active

>  <TD50_Rat_mg>
0.17

>  <TD50_Rat_mmol>
0.000696

>  <ActivityScore_CPDBAS_Rat>
58

>  <TD50_Rat_Note>
positive test results only by intraperitoneal or intravenous injection

>  <TargetSites_Rat_Male>
testes

>  <TargetSites_Rat_Female>
NTP bioassay inadequate

>  <ActivityOutcome_CPDBAS_Rat>
active

>  <TD50_Mouse_mg>
0.0774

>  <TD50_Mouse_mmol>
0.000317

>  <ActivityScore_CPDBAS_Mouse>
68

>  <TD50_Mouse_Note>
positive test results only by intraperitoneal or intravenous injection; TD50 is harmonic mean of more than one positive test

>  <TargetSites_Mouse_Male>
hematopoietic system; lung; skin

>  <TargetSites_Mouse_Female>
hematopoietic system; mammary gland; skin

>  <ActivityOutcome_CPDBAS_Mouse>
active

>  <ActivityOutcome_CPDBAS_SingleCellCall>
active

>  <ActivityOutcome_CPDBAS_MultiCellCall>
active

>  <ActivityOutcome_CPDBAS_MultiCellCall_Details>
multisite active; multisex active; multispecies active

>  <NTP_TechnicalReport>
TR 42; final call in CPDB differs due to additional data

>  <ChemicalPage_URL>
http://potency.berkeley.edu/chempages/5-AZACYTIDINE.html

$$$$



 17 18  0  0  1  0  0  0  0  0999 V2000
    3.6714   -5.3263    0.0000 C   0  0  2  0  0  0  0  0  0  0  0  0
    3.6560   -4.0101    0.0000 N   0  0  0  0  0  0  0  0  0  0  0  0
    2.6323   -4.5566    0.0000 O   0  0  0  0  0  0  0  0  0  0  0  0
    3.2558   -6.6040    0.0000 C   0  0  1  0  0  0  0  0  0  0  0  0
    4.7875   -3.3328    0.0000 C   0  0  0  0  0  0  0  0  0  0  0  0
    2.5092   -3.3482    0.0000 N   0  0  0  0  0  0  0  0  0  0  0  0
    1.5240   -5.3109    0.0000 C   0  0  1  0  0  0  0  0  0  0  0  0
    1.9088   -6.5732    0.0000 C   0  0  1  0  0  0  0  0  0  0  0  0
    4.0332   -7.6969    0.0000 O   0  0  0  0  0  0  0  0  0  0  0  0
    4.7798   -2.0089    0.0000 N   0  0  0  0  0  0  0  0  0  0  0  0
    5.9497   -3.9947    0.0000 O   0  0  0  0  0  0  0  0  0  0  0  0
    2.4938   -2.0166    0.0000 C   0  0  0  0  0  0  0  0  0  0  0  0
    0.2617   -4.8876    0.0000 C   0  0  0  0  0  0  0  0  0  0  0  0
    1.1084   -7.6431    0.0000 O   0  0  0  0  0  0  0  0  0  0  0  0
    3.6176   -1.3393    0.0000 C   0  0  0  0  0  0  0  0  0  0  0  0
    0.0000   -3.5714    0.0000 O   0  0  0  0  0  0  0  0  0  0  0  0
    3.6176    0.0000    0.0000 N   0  0  0  0  0  0  0  0  0  0  0  0
  1  2  1  1  0  0  0
  1  3  1  0  0  0  0
  1  4  1  0  0  0  0
  2  5  1  0  0  0  0
  2  6  1  0  0  0  0
  3  7  1  0  0  0  0
  4  8  1  0  0  0  0
  4  9  1  6  0  0  0
  5 10  1  0  0  0  0
  5 11  2  0  0  0  0
  6 12  2  0  0  0  0
  7 13  1  1  0  0  0
  7  8  1  0  0  0  0
  8 14  1  6  0  0  0
 10 15  2  0  0  0  0
 12 15  1  0  0  0  0
 13 16  1  0  0  0  0
 15 17  1  0  0  0  0
M  END
>  <DSSTox_RID>
20117

>  <DSSTox_CID>
117

>  <DSSTox_Generic_SID>
20117

>  <DSSTox_FileID>
120_CPDBAS_v5d

>  <STRUCTURE_Formula>
C8H12N4O5

>  <STRUCTURE_MolecularWeight>
244.2047

>  <STRUCTURE_ChemicalType>
defined organic

>  <STRUCTURE_TestedForm_DefinedOrganic>
parent

>  <STRUCTURE_Shown>
tested chemical

>  <TestSubstance_ChemicalName>
6-Azacytidine

>  <TestSubstance_CASRN>
3131-60-0

>  <TestSubstance_Description>
single chemical compound

>  <ChemicalNote>
stereochem

>  <STRUCTURE_ChemicalName_IUPAC>
5-amino-2-beta-D-ribofuranosyl-1,2,4-triazin-3(2H)-one

>  <STRUCTURE_SMILES>
O[C@H]([C@@H]2O)[C@@H](O[C@@H]2CO)N(N=CC(N)=N1)C1=O

>  <STRUCTURE_Parent_SMILES>
O[C@H]([C@@H]2O)[C@@H](O[C@@H]2CO)N(N=CC(N)=N1)C1=O

>  <STRUCTURE_InChI>
InChI=1/C8H12N4O5/c9-4-1-10-12(8(16)11-4)7-6(15)5(14)3(2-13)17-7/h1,3,5-7,13-15H,2H2,(H2,9,11,16)/t3-,5-,6-,7-/m1/s1/f/h9H2

>  <STRUCTURE_InChIKey>
OZQDLJNDRVBCST-YZJMXTBEDV

>  <StudyType>
Carcinogenicity

>  <Endpoint>
TD50; Tumor Target Sites

>  <Species>
rat

>  <ActivityScore_CPDBAS_Rat>
0

>  <TD50_Rat_Note>
no positive results

>  <TargetSites_Rat_Male>
no positive results

>  <ActivityOutcome_CPDBAS_Rat>
inactive

>  <ActivityOutcome_CPDBAS_SingleCellCall>
inactive

>  <ChemicalPage_URL>
http://potency.berkeley.edu/chempages/6-AZACYTIDINE.html

$$$$



 12 11  0  0  1  0  0  0  0  0999 V2000
    2.6605    0.0000    0.0000 O   0  0  0  0  0  0  0  0  0  0  0  0
    3.3256   -1.1488    0.0000 C   0  0  0  0  0  0  0  0  0  0  0  0
    4.6472   -1.1488    0.0000 O   0  0  0  0  0  0  0  0  0  0  0  0
    5.3123   -2.3063    0.0000 C   0  0  0  0  0  0  0  0  0  0  0  0
    6.6426   -2.3063    0.0000 C   0  0  1  0  0  0  0  0  0  0  0  0
    7.3077   -3.4552    0.0000 C   0  0  0  0  0  0  0  0  0  0  0  0
    6.6426   -4.6040    0.0000 O   0  0  0  0  0  0  0  0  0  0  0  0
    8.6380   -3.4552    0.0000 O   0  0  0  0  0  0  0  0  0  0  0  0
    7.3077   -1.1488    0.0000 N   0  0  0  0  0  0  0  0  0  0  0  0
    2.6605   -2.3063    0.0000 C   0  0  0  0  0  0  0  0  0  0  0  0
    1.3302   -2.3063    0.0000 N   0  3  0  0  0  0  0  0  0  0  0  0
    0.0000   -2.3063    0.0000 N   0  5  0  0  0  0  0  0  0  0  0  0
  1  2  2  0  0  0  0
  2  3  1  0  0  0  0
  2 10  1  0  0  0  0
  3  4  1  0  0  0  0
  4  5  1  0  0  0  0
  5  6  1  0  0  0  0
  5  9  1  6  0  0  0
  6  7  2  0  0  0  0
  6  8  1  0  0  0  0
 10 11  2  0  0  0  0
 11 12  2  0  0  0  0
M  END
>  <DSSTox_RID>
20118

>  <DSSTox_CID>
118

>  <DSSTox_Generic_SID>
20118

>  <DSSTox_FileID>
121_CPDBAS_v5d

>  <STRUCTURE_Formula>
C5H7N3O4

>  <STRUCTURE_MolecularWeight>
173.128

>  <STRUCTURE_ChemicalType>
defined organic

>  <STRUCTURE_TestedForm_DefinedOrganic>
parent

>  <STRUCTURE_Shown>
tested chemical

>  <TestSubstance_ChemicalName>
Azaserine

>  <TestSubstance_CASRN>
115-02-6

>  <TestSubstance_Description>
single chemical compound

>  <ChemicalNote>
stereochem

>  <STRUCTURE_ChemicalName_IUPAC>
O-(diazoacetyl)-L-serine

>  <STRUCTURE_SMILES>
O=C(OC[C@@H](C(=O)O)N)C=[N+]=[N-]

>  <STRUCTURE_Parent_SMILES>
O=C(OC[C@@H](C(=O)O)N)C=[N+]=[N-]

>  <STRUCTURE_InChI>
InChI=1/C5H7N3O4/c6-3(5(10)11)2-12-4(9)1-8-7/h1,3H,2,6H2,(H,10,11)/t3-/m0/s1/f/h10H

>  <STRUCTURE_InChIKey>
MZZGOOYMKKIOOX-HHGNLZBSDH

>  <StudyType>
Carcinogenicity

>  <Endpoint>
TD50; Tumor Target Sites

>  <Species>
rat

>  <ActivityOutcome_CPDBAS_Mutagenicity>
active

>  <TD50_Rat_mg>
0.793

>  <TD50_Rat_mmol>
0.00458

>  <ActivityScore_CPDBAS_Rat>
50

>  <TD50_Rat_Note>
positive test results only by intraperitoneal or intravenous injection

>  <TargetSites_Rat_BothSexes>
pancreas

>  <ActivityOutcome_CPDBAS_Rat>
active

>  <ActivityOutcome_CPDBAS_SingleCellCall>
active

>  <ChemicalPage_URL>
http://potency.berkeley.edu/chempages/AZASERINE.html

$$$$



 19 21  0  0  0  0  0  0  0  0999 V2000
    3.2901   -4.0583    0.0000 N   0  0  0  0  0  0  0  0  0  0  0  0
    2.1377   -4.7263    0.0000 C   0  0  0  0  0  0  0  0  0  0  0  0
    0.9853   -4.0583    0.0000 N   0  0  0  0  0  0  0  0  0  0  0  0
    0.9853   -2.7306    0.0000 C   0  0  0  0  0  0  0  0  0  0  0  0
    2.1377   -2.0626    0.0000 C   0  0  0  0  0  0  0  0  0  0  0  0
    3.2901   -2.7306    0.0000 C   0  0  0  0  0  0  0  0  0  0  0  0
    4.4424   -2.0626    0.0000 S   0  0  0  0  0  0  0  0  0  0  0  0
    5.5948   -2.7306    0.0000 C   0  0  0  0  0  0  0  0  0  0  0  0
    5.7367   -4.0500    0.0000 N   0  0  0  0  0  0  0  0  0  0  0  0
    4.7430   -4.9434    0.0000 C   0  0  0  0  0  0  0  0  0  0  0  0
    7.0310   -4.3339    0.0000 C   0  0  0  0  0  0  0  0  0  0  0  0
    7.6991   -3.1815    0.0000 N   0  0  0  0  0  0  0  0  0  0  0  0
    6.8056   -2.1878    0.0000 C   0  0  0  0  0  0  0  0  0  0  0  0
    7.0895   -0.8935    0.0000 N   0  3  0  0  0  0  0  0  0  0  0  0
    6.0958    0.0000    0.0000 O   0  5  0  0  0  0  0  0  0  0  0  0
    8.3504   -0.4760    0.0000 O   0  0  0  0  0  0  0  0  0  0  0  0
    1.8621   -0.7682    0.0000 N   0  0  0  0  0  0  0  0  0  0  0  0
    0.5428   -0.6263    0.0000 C   0  0  0  0  0  0  0  0  0  0  0  0
    0.0000   -1.8454    0.0000 N   0  0  0  0  0  0  0  0  0  0  0  0
  1  2  1  0  0  0  0
  1  6  2  0  0  0  0
  2  3  2  0  0  0  0
  3  4  1  0  0  0  0
  4  5  2  0  0  0  0
  4 19  1  0  0  0  0
  5  6  1  0  0  0  0
  5 17  1  0  0  0  0
  6  7  1  0  0  0  0
  7  8  1  0  0  0  0
  8  9  1  0  0  0  0
  8 13  2  0  0  0  0
  9 10  1  0  0  0  0
  9 11  1  0  0  0  0
 11 12  2  0  0  0  0
 12 13  1  0  0  0  0
 13 14  1  0  0  0  0
 14 15  1  0  0  0  0
 14 16  2  0  0  0  0
 17 18  1  0  0  0  0
 18 19  2  0  0  0  0
M  END
>  <DSSTox_RID>
20119

>  <DSSTox_CID>
119

>  <DSSTox_Generic_SID>
20119

>  <DSSTox_FileID>
122_CPDBAS_v5d

>  <STRUCTURE_Formula>
C9H7N7O2S

>  <STRUCTURE_MolecularWeight>
277.2626

>  <STRUCTURE_ChemicalType>
defined organic

>  <STRUCTURE_TestedForm_DefinedOrganic>
parent

>  <STRUCTURE_Shown>
tested chemical

>  <TestSubstance_ChemicalName>
Azathioprine

>  <TestSubstance_CASRN>
446-86-6

>  <TestSubstance_Description>
single chemical compound

>  <ChemicalNote>
tautomers

>  <STRUCTURE_ChemicalName_IUPAC>
6-[(1-methyl-4-nitro-1H-imidazol-5-yl)thio]-7H-purine

>  <STRUCTURE_SMILES>
[O-][N+](C(N=C3)=C(SC1=NC=NC2=C1NC=N2)N3C)=O

>  <STRUCTURE_Parent_SMILES>
[O-][N+](C(N=C3)=C(SC1=NC=NC2=C1NC=N2)N3C)=O

>  <STRUCTURE_InChI>
InChI=1/C9H7N7O2S/c1-15-4-14-7(16(17)18)9(15)19-8-5-6(11-2-10-5)12-3-13-8/h2-4H,1H3,(H,10,11,12,13)/f/h10H

>  <STRUCTURE_InChIKey>
LMEKQMALGUDUQG-KZFATGLACK

>  <StudyType>
Carcinogenicity

>  <Endpoint>
TD50; Tumor Target Sites

>  <Species>
rat; mouse; rhesus; cynomolgus

>  <ActivityOutcome_CPDBAS_Mutagenicity>
active

>  <ActivityScore_CPDBAS_Rat>
0

>  <TD50_Rat_Note>
no positive results

>  <TargetSites_Rat_Female>
no positive results

>  <ActivityOutcome_CPDBAS_Rat>
inactive

>  <TD50_Mouse_mg>
8.92

>  <TD50_Mouse_mmol>
0.0322

>  <ActivityScore_CPDBAS_Mouse>
45

>  <TargetSites_Mouse_Male>
no positive results

>  <TargetSites_Mouse_Female>
hematopoietic system; vascular system

>  <ActivityOutcome_CPDBAS_Mouse>
active

>  <TargetSites_Rhesus>
no positive results

>  <TargetSites_Cynomolgus>
no positive results

>  <TD50_Dog_Primates_Note>
no positive results for Rhesus and Cynomolgus

>  <ActivityOutcome_CPDBAS_Dog_Primates>
inactive

>  <ActivityOutcome_CPDBAS_SingleCellCall>
active

>  <ActivityOutcome_CPDBAS_MultiCellCall>
active

>  <ActivityOutcome_CPDBAS_MultiCellCall_Details>
multisite active

>  <ChemicalPage_URL>
http://potency.berkeley.edu/chempages/AZATHIOPRINE.html

$$$$



 43 47  0  0  0  0  0  0  0  0999 V2000
    4.6201   -6.8208    0.0000 C   0  0  0  0  0  0  0  0  0  0  0  0
    4.6201   -8.1464    0.0000 N   0  0  0  0  0  0  0  0  0  0  0  0
    5.9457   -8.1464    0.0000 C   0  0  0  0  0  0  0  0  0  0  0  0
    5.9457   -6.8208    0.0000 C   0  0  0  0  0  0  0  0  0  0  0  0
    5.9972   -2.6511    0.0000 C   0  0  0  0  0  0  0  0  0  0  0  0
    5.9972   -3.9767    0.0000 C   0  0  0  0  0  0  0  0  0  0  0  0
    7.1297   -4.6330    0.0000 C   0  0  0  0  0  0  0  0  0  0  0  0
    8.2880   -3.9767    0.0000 C   0  0  0  0  0  0  0  0  0  0  0  0
    8.2880   -2.6511    0.0000 C   0  0  0  0  0  0  0  0  0  0  0  0
    7.1297   -1.9819    0.0000 C   0  0  0  0  0  0  0  0  0  0  0  0
    4.8389   -4.6330    0.0000 N   0  3  0  0  0  0  0  0  0  0  0  0
    4.8389   -5.9586    0.0000 O   0  5  0  0  0  0  0  0  0  0  0  0
    3.7064   -3.9767    0.0000 O   0  0  0  0  0  0  0  0  0  0  0  0
    9.4205   -4.6330    0.0000 C   0  0  3  0  0  0  0  0  0  0  0  0
    9.4205   -5.9586    0.0000 C   0  0  0  0  0  0  0  0  0  0  0  0
   10.5787   -6.6149    0.0000 C   0  0  0  0  0  0  0  0  0  0  0  0
   11.7112   -5.9586    0.0000 N   0  0  0  0  0  0  0  0  0  0  0  0
   11.7112   -4.6330    0.0000 C   0  0  0  0  0  0  0  0  0  0  0  0
   10.5787   -3.9767    0.0000 C   0  0  0  0  0  0  0  0  0  0  0  0
   12.8695   -3.9767    0.0000 C   0  0  0  0  0  0  0  0  0  0  0  0
   10.5787   -2.6511    0.0000 C   0  0  0  0  0  0  0  0  0  0  0  0
   11.7112   -1.9819    0.0000 O   0  0  0  0  0  0  0  0  0  0  0  0
    9.4205   -1.9819    0.0000 O   0  0  0  0  0  0  0  0  0  0  0  0
    9.4205   -0.6692    0.0000 C   0  0  0  0  0  0  0  0  0  0  0  0
   10.5787    0.0000    0.0000 C   0  0  0  0  0  0  0  0  0  0  0  0
    8.2880    0.0000    0.0000 C   0  0  0  0  0  0  0  0  0  0  0  0
   10.5787   -7.9405    0.0000 N   0  0  0  0  0  0  0  0  0  0  0  0
    8.2493   -6.6149    0.0000 C   0  0  0  0  0  0  0  0  0  0  0  0
    7.0782   -5.9586    0.0000 O   0  0  0  0  0  0  0  0  0  0  0  0
    8.2493   -7.9405    0.0000 O   0  0  0  0  0  0  0  0  0  0  0  0
    3.4619   -8.8027    0.0000 C   0  0  0  0  0  0  0  0  0  0  0  0
    2.3036   -8.1464    0.0000 C   0  0  0  0  0  0  0  0  0  0  0  0
    3.4619  -10.1540    0.0000 C   0  0  0  0  0  0  0  0  0  0  0  0
    1.1583   -8.8027    0.0000 C   0  0  0  0  0  0  0  0  0  0  0  0
    0.0000   -8.1464    0.0000 C   0  0  0  0  0  0  0  0  0  0  0  0
    0.0000   -6.8080    0.0000 C   0  0  0  0  0  0  0  0  0  0  0  0
    1.1583   -6.1516    0.0000 C   0  0  0  0  0  0  0  0  0  0  0  0
    2.3036   -6.8080    0.0000 C   0  0  0  0  0  0  0  0  0  0  0  0
    4.6201  -10.7975    0.0000 C   0  0  0  0  0  0  0  0  0  0  0  0
    4.6201  -12.1488    0.0000 C   0  0  0  0  0  0  0  0  0  0  0  0
    3.4619  -12.8180    0.0000 C   0  0  0  0  0  0  0  0  0  0  0  0
    2.3036  -12.1488    0.0000 C   0  0  0  0  0  0  0  0  0  0  0  0
    2.3036  -10.7975    0.0000 C   0  0  0  0  0  0  0  0  0  0  0  0
  1  2  1  0  0  0  0
  1  4  1  0  0  0  0
  2  3  1  0  0  0  0
  2 31  1  0  0  0  0
  3  4  1  0  0  0  0
  4 29  1  0  0  0  0
  5  6  2  0  0  0  0
  5 10  1  0  0  0  0
  6 11  1  0  0  0  0
  6  7  1  0  0  0  0
  7  8  2  0  0  0  0
  8 14  1  0  0  0  0
  8  9  1  0  0  0  0
  9 10  2  0  0  0  0
 11 12  1  0  0  0  0
 11 13  2  0  0  0  0
 14 15  1  0  0  0  0
 14 19  1  0  0  0  0
 15 28  1  0  0  0  0
 15 16  2  0  0  0  0
 16 27  1  0  0  0  0
 16 17  1  0  0  0  0
 17 18  1  0  0  0  0
 18 19  2  0  0  0  0
 18 20  1  0  0  0  0
 19 21  1  0  0  0  0
 21 22  2  0  0  0  0
 21 23  1  0  0  0  0
 23 24  1  0  0  0  0
 24 25  1  0  0  0  0
 24 26  1  0  0  0  0
 28 29  1  0  0  0  0
 28 30  2  0  0  0  0
 31 32  1  0  0  0  0
 31 33  1  0  0  0  0
 32 34  2  0  0  0  0
 32 38  1  0  0  0  0
 33 39  2  0  0  0  0
 33 43  1  0  0  0  0
 34 35  1  0  0  0  0
 35 36  2  0  0  0  0
 36 37  1  0  0  0  0
 37 38  2  0  0  0  0
 39 40  1  0  0  0  0
 40 41  2  0  0  0  0
 41 42  1  0  0  0  0
 42 43  2  0  0  0  0
M  END
>  <DSSTox_RID>
20120

>  <DSSTox_CID>
120

>  <DSSTox_Generic_SID>
20120

>  <DSSTox_FileID>
123_CPDBAS_v5d

>  <STRUCTURE_Formula>
C33H34N4O6

>  <STRUCTURE_MolecularWeight>
582.6462

>  <STRUCTURE_ChemicalType>
defined organic

>  <STRUCTURE_TestedForm_DefinedOrganic>
parent

>  <STRUCTURE_Shown>
tested chemical

>  <TestSubstance_ChemicalName>
Azelnidipine

>  <TestSubstance_CASRN>
123524-52-7

>  <TestSubstance_Description>
single chemical compound

>  <STRUCTURE_ChemicalName_IUPAC>
3-[1-(diphenylmethyl)azetidin-3-yl] 5-(1-methylethyl) 2-amino-6-methyl-4-(3-nitrophenyl)-1,4-dihydropyridine-3,5-dicarboxylate

>  <STRUCTURE_SMILES>
[O-][N+](C1=CC=CC(C2C(C(OC3CN(C(C5=CC=CC=C5)C4=CC=CC=C4)C3)=O)=C(NC(C)=C2C(OC(C)C)=O)N)=C1)=O

>  <STRUCTURE_Parent_SMILES>
[O-][N+](C1=CC=CC(C2C(C(OC3CN(C(C5=CC=CC=C5)C4=CC=CC=C4)C3)=O)=C(NC(C)=C2C(OC(C)C)=O)N)=C1)=O

>  <STRUCTURE_InChI>
InChI=1/C33H34N4O6/c1-20(2)42-32(38)27-21(3)35-31(34)29(28(27)24-15-10-16-25(17-24)37(40)41)33(39)43-26-18-36(19-26)30(22-11-6-4-7-12-22)23-13-8-5-9-14-23/h4-17,20,26,28,30,35H,18-19,34H2,1-3H3

>  <STRUCTURE_InChIKey>
ZKFQEACEUNWPMT-UHFFFAOYAU

>  <StudyType>
Carcinogenicity

>  <Endpoint>
TD50; Tumor Target Sites

>  <Species>
rat; mouse

>  <ActivityScore_CPDBAS_Rat>
0

>  <TD50_Rat_Note>
no positive results

>  <TargetSites_Rat_Male>
no positive results

>  <TargetSites_Rat_Female>
no positive results

>  <ActivityOutcome_CPDBAS_Rat>
inactive

>  <ActivityScore_CPDBAS_Mouse>
0

>  <TD50_Mouse_Note>
no positive results

>  <TargetSites_Mouse_Male>
no positive results

>  <TargetSites_Mouse_Female>
no positive results

>  <ActivityOutcome_CPDBAS_Mouse>
inactive

>  <ActivityOutcome_CPDBAS_SingleCellCall>
inactive

>  <ActivityOutcome_CPDBAS_MultiCellCall>
inactive

>  <ActivityOutcome_CPDBAS_MultiCellCall_Details>
multisex inactive; multispecies inactive

>  <Note_CPDBAS>
Rat added v3a; Mouse added v3a; chemical added v3a

>  <ChemicalPage_URL>
http://potency.berkeley.edu/chempages/AZELNIDIPINE.html

$$$$



 19 20  0  0  0  0  0  0  0  0999 V2000
    3.4502   -0.9739    0.0000 O   0  0  0  0  0  0  0  0  0  0  0  0
    3.4502   -2.3002    0.0000 C   0  0  0  0  0  0  0  0  0  0  0  0
    2.3002   -2.9736    0.0000 C   0  0  0  0  0  0  0  0  0  0  0  0
    2.3002   -4.2998    0.0000 C   0  0  0  0  0  0  0  0  0  0  0  0
    1.1501   -4.9629    0.0000 C   0  0  0  0  0  0  0  0  0  0  0  0
    0.0000   -4.2998    0.0000 C   0  0  0  0  0  0  0  0  0  0  0  0
    0.0000   -2.9736    0.0000 C   0  0  0  0  0  0  0  0  0  0  0  0
    1.1501   -2.3002    0.0000 C   0  0  0  0  0  0  0  0  0  0  0  0
    3.4502   -4.9629    0.0000 N   0  0  0  0  0  0  0  0  0  0  0  0
    4.6003   -4.2998    0.0000 N   0  0  0  0  0  0  0  0  0  0  0  0
    4.6003   -2.9736    0.0000 N   0  0  0  0  0  0  0  0  0  0  0  0
    5.7607   -2.3002    0.0000 C   0  0  0  0  0  0  0  0  0  0  0  0
    6.9108   -2.9736    0.0000 S   0  0  0  0  0  0  0  0  0  0  0  0
    8.0609   -2.3002    0.0000 P   0  0  0  0  0  0  0  0  0  0  0  0
    8.7240   -3.4606    0.0000 S   0  0  0  0  0  0  0  0  0  0  0  0
    7.3978   -1.1501    0.0000 O   0  0  0  0  0  0  0  0  0  0  0  0
    8.0609    0.0000    0.0000 C   0  0  0  0  0  0  0  0  0  0  0  0
    9.2110   -1.6370    0.0000 O   0  0  0  0  0  0  0  0  0  0  0  0
   10.3610   -2.3002    0.0000 C   0  0  0  0  0  0  0  0  0  0  0  0
  1  2  2  0  0  0  0
  2  3  1  0  0  0  0
  2 11  1  0  0  0  0
  3  4  2  0  0  0  0
  3  8  1  0  0  0  0
  4  5  1  0  0  0  0
  4  9  1  0  0  0  0
  5  6  2  0  0  0  0
  6  7  1  0  0  0  0
  7  8  2  0  0  0  0
  9 10  2  0  0  0  0
 10 11  1  0  0  0  0
 11 12  1  0  0  0  0
 12 13  1  0  0  0  0
 13 14  1  0  0  0  0
 14 15  2  0  0  0  0
 14 16  1  0  0  0  0
 14 18  1  0  0  0  0
 16 17  1  0  0  0  0
 18 19  1  0  0  0  0
M  END
>  <DSSTox_RID>
20122

>  <DSSTox_CID>
122

>  <DSSTox_Generic_SID>
20122

>  <DSSTox_FileID>
125_CPDBAS_v5d

>  <STRUCTURE_Formula>
C10H12N3O3PS2

>  <STRUCTURE_MolecularWeight>
317.3243

>  <STRUCTURE_ChemicalType>
defined organic

>  <STRUCTURE_TestedForm_DefinedOrganic>
parent

>  <STRUCTURE_Shown>
tested chemical

>  <TestSubstance_ChemicalName>
Azinphosmethyl

>  <TestSubstance_CASRN>
86-50-0

>  <TestSubstance_Description>
single chemical compound

>  <STRUCTURE_ChemicalName_IUPAC>
O,O-dimethyl S-[(4-oxo-1,2,3-benzotriazin-3(4H)-yl)methyl] dithiophosphate

>  <STRUCTURE_SMILES>
O=C1C2=C(C=CC=C2)N=NN1CSP(=S)(OC)OC

>  <STRUCTURE_Parent_SMILES>
O=C1C2=C(C=CC=C2)N=NN1CSP(=S)(OC)OC

>  <STRUCTURE_InChI>
InChI=1/C10H12N3O3PS2/c1-15-17(18,16-2)19-7-13-10(14)8-5-3-4-6-9(8)11-12-13/h3-6H,7H2,1-2H3

>  <STRUCTURE_InChIKey>
CJJOSEISRRTUQB-UHFFFAOYAL

>  <StudyType>
Carcinogenicity

>  <Endpoint>
TD50; Tumor Target Sites

>  <Species>
rat; mouse

>  <ActivityOutcome_CPDBAS_Mutagenicity>
active

>  <ActivityScore_CPDBAS_Rat>
0

>  <TD50_Rat_Note>
no positive results

>  <TargetSites_Rat_Male>
no positive results

>  <TargetSites_Rat_Female>
no positive results

>  <ActivityOutcome_CPDBAS_Rat>
inactive

>  <ActivityScore_CPDBAS_Mouse>
0

>  <TD50_Mouse_Note>
no positive results

>  <TargetSites_Mouse_Male>
no positive results

>  <TargetSites_Mouse_Female>
no positive results

>  <ActivityOutcome_CPDBAS_Mouse>
inactive

>  <ActivityOutcome_CPDBAS_SingleCellCall>
inactive

>  <ActivityOutcome_CPDBAS_MultiCellCall>
inactive

>  <ActivityOutcome_CPDBAS_MultiCellCall_Details>
multisex inactive; multispecies inactive

>  <NTP_TechnicalReport>
TR 69

>  <ChemicalPage_URL>
http://potency.berkeley.edu/chempages/AZINPHOSMETHYL.html

$$$$



 14 15  0  0  0  0  0  0  0  0999 V2000
    4.6497   -2.3075    0.0000 N   0  0  0  0  0  0  0  0  0  0  0  0
    3.9928   -1.1581    0.0000 N   0  0  0  0  0  0  0  0  0  0  0  0
    2.6619   -1.1581    0.0000 C   0  0  0  0  0  0  0  0  0  0  0  0
    1.9964   -2.3075    0.0000 C   0  0  0  0  0  0  0  0  0  0  0  0
    0.6655   -2.3075    0.0000 C   0  0  0  0  0  0  0  0  0  0  0  0
    0.0000   -1.1581    0.0000 C   0  0  0  0  0  0  0  0  0  0  0  0
    0.6655    0.0000    0.0000 C   0  0  0  0  0  0  0  0  0  0  0  0
    1.9964    0.0000    0.0000 C   0  0  0  0  0  0  0  0  0  0  0  0
    5.9806   -2.3075    0.0000 C   0  0  0  0  0  0  0  0  0  0  0  0
    6.6461   -1.1581    0.0000 C   0  0  0  0  0  0  0  0  0  0  0  0
    7.9770   -1.1581    0.0000 C   0  0  0  0  0  0  0  0  0  0  0  0
    8.6425   -2.3075    0.0000 C   0  0  0  0  0  0  0  0  0  0  0  0
    7.9770   -3.4570    0.0000 C   0  0  0  0  0  0  0  0  0  0  0  0
    6.6461   -3.4570    0.0000 C   0  0  0  0  0  0  0  0  0  0  0  0
  1  2  2  0  0  0  0
  1  9  1  0  0  0  0
  2  3  1  0  0  0  0
  3  4  2  0  0  0  0
  3  8  1  0  0  0  0
  4  5  1  0  0  0  0
  5  6  2  0  0  0  0
  6  7  1  0  0  0  0
  7  8  2  0  0  0  0
  9 10  2  0  0  0  0
  9 14  1  0  0  0  0
 10 11  1  0  0  0  0
 11 12  2  0  0  0  0
 12 13  1  0  0  0  0
 13 14  2  0  0  0  0
M  END
>  <DSSTox_RID>
20123

>  <DSSTox_CID>
123

>  <DSSTox_Generic_SID>
20123

>  <DSSTox_FileID>
126_CPDBAS_v5d

>  <STRUCTURE_Formula>
C12H10N2

>  <STRUCTURE_MolecularWeight>
182.2212

>  <STRUCTURE_ChemicalType>
defined organic

>  <STRUCTURE_TestedForm_DefinedOrganic>
parent

>  <STRUCTURE_Shown>
tested chemical

>  <TestSubstance_ChemicalName>
Azobenzene

>  <TestSubstance_CASRN>
103-33-3

>  <TestSubstance_Description>
single chemical compound

>  <STRUCTURE_ChemicalName_IUPAC>
(E)-diphenyldiazene

>  <STRUCTURE_SMILES>
C1(/N=N/C2=CC=CC=C2)=CC=CC=C1

>  <STRUCTURE_Parent_SMILES>
C1(/N=N/C2=CC=CC=C2)=CC=CC=C1

>  <STRUCTURE_InChI>
InChI=1/C12H10N2/c1-3-7-11(8-4-1)13-14-12-9-5-2-6-10-12/h1-10H/b14-13+

>  <STRUCTURE_InChIKey>
DMLAVOWQYNRWNQ-BUHFOSPRBP

>  <StudyType>
Carcinogenicity

>  <Endpoint>
TD50; Tumor Target Sites

>  <Species>
rat; mouse

>  <ActivityOutcome_CPDBAS_Mutagenicity>
active

>  <TD50_Rat_mg>
24.1

>  <TD50_Rat_mmol>
0.132

>  <ActivityScore_CPDBAS_Rat>
35

>  <TD50_Rat_Note>
TD50 is harmonic mean of more than one positive test

>  <TargetSites_Rat_Male>
spleen; vascular system

>  <TargetSites_Rat_Female>
spleen

>  <ActivityOutcome_CPDBAS_Rat>
active

>  <ActivityScore_CPDBAS_Mouse>
0

>  <TD50_Mouse_Note>
no positive results

>  <TargetSites_Mouse_Male>
no positive results

>  <TargetSites_Mouse_Female>
no positive results

>  <ActivityOutcome_CPDBAS_Mouse>
inactive

>  <ActivityOutcome_CPDBAS_SingleCellCall>
active

>  <ActivityOutcome_CPDBAS_MultiCellCall>
active

>  <ActivityOutcome_CPDBAS_MultiCellCall_Details>
multisite active; multisex active

>  <NTP_TechnicalReport>
TR 154

>  <ChemicalPage_URL>
http://potency.berkeley.edu/chempages/AZOBENZENE.html

$$$$



  5  4  0  0  0  0  0  0  0  0999 V2000
    0.0000   -1.9945    0.0000 C   0  0  0  0  0  0  0  0  0  0  0  0
    1.1511   -1.3308    0.0000 N   0  3  0  0  0  0  0  0  0  0  0  0
    2.3056   -1.9945    0.0000 N   0  0  0  0  0  0  0  0  0  0  0  0
    3.4567   -1.3308    0.0000 C   0  0  0  0  0  0  0  0  0  0  0  0
    1.1511    0.0000    0.0000 O   0  5  0  0  0  0  0  0  0  0  0  0
  1  2  1  0  0  0  0
  2  3  2  0  0  0  0
  2  5  1  0  0  0  0
  3  4  1  0  0  0  0
M  END
>  <DSSTox_RID>
20124

>  <DSSTox_CID>
124

>  <DSSTox_Generic_SID>
20124

>  <DSSTox_FileID>
127_CPDBAS_v5d

>  <STRUCTURE_Formula>
C2H6N2O

>  <STRUCTURE_MolecularWeight>
74.0818

>  <STRUCTURE_ChemicalType>
defined organic

>  <STRUCTURE_TestedForm_DefinedOrganic>
parent

>  <STRUCTURE_Shown>
tested chemical

>  <TestSubstance_ChemicalName>
Azoxymethane

>  <TestSubstance_CASRN>
25843-45-2

>  <TestSubstance_Description>
single chemical compound

>  <STRUCTURE_ChemicalName_IUPAC>
[(Z)-methyl-NNO-azoxy]methane

>  <STRUCTURE_SMILES>
C[N+](=NC)[O-]

>  <STRUCTURE_Parent_SMILES>
C[N+](=NC)[O-]

>  <STRUCTURE_InChI>
InChI=1/C2H6N2O/c1-3-4(2)5/h1-2H3/b4-3-

>  <STRUCTURE_InChIKey>
DGAKHGXRMXWHBX-ARJAWSKDBJ

>  <StudyType>
Carcinogenicity

>  <Endpoint>
TD50; Tumor Target Sites

>  <Species>
rat

>  <ActivityOutcome_CPDBAS_Mutagenicity>
active

>  <TD50_Rat_mg>
0.0466

>  <TD50_Rat_mmol>
0.000629

>  <ActivityScore_CPDBAS_Rat>
59

>  <TD50_Rat_Note>
TD50 is harmonic mean of more than one positive test

>  <TargetSites_Rat_Male>
ear Zymbals gland; kidney; large intestine; liver

>  <ActivityOutcome_CPDBAS_Rat>
active

>  <ActivityOutcome_CPDBAS_SingleCellCall>
active

>  <ActivityOutcome_CPDBAS_MultiCellCall>
active

>  <ActivityOutcome_CPDBAS_MultiCellCall_Details>
multisite active

>  <ChemicalPage_URL>
http://potency.berkeley.edu/chempages/AZOXYMETHANE.html

$$$$



  9  8  0  0  0  0  0  0  0  0999 V2000
    2.6600   -1.1571    0.0000 N   0  3  0  0  0  0  0  0  0  0  0  0
    3.9901   -1.1571    0.0000 N   0  0  0  0  0  0  0  0  0  0  0  0
    4.6551   -2.3076    0.0000 C   0  0  0  0  0  0  0  0  0  0  0  0
    5.9851   -2.3076    0.0000 C   0  0  0  0  0  0  0  0  0  0  0  0
    6.6501   -3.4580    0.0000 C   0  0  0  0  0  0  0  0  0  0  0  0
    1.9950   -2.3076    0.0000 C   0  0  0  0  0  0  0  0  0  0  0  0
    0.6650   -2.3076    0.0000 C   0  0  0  0  0  0  0  0  0  0  0  0
    0.0000   -3.4580    0.0000 C   0  0  0  0  0  0  0  0  0  0  0  0
    1.9950    0.0000    0.0000 O   0  5  0  0  0  0  0  0  0  0  0  0
  1  2  2  0  0  0  0
  1  6  1  0  0  0  0
  1  9  1  0  0  0  0
  2  3  1  0  0  0  0
  3  4  1  0  0  0  0
  4  5  1  0  0  0  0
  6  7  1  0  0  0  0
  7  8  1  0  0  0  0
M  END
>  <DSSTox_RID>
20125

>  <DSSTox_CID>
125

>  <DSSTox_Generic_SID>
20125

>  <DSSTox_FileID>
128_CPDBAS_v5d

>  <STRUCTURE_Formula>
C6H14N2O

>  <STRUCTURE_MolecularWeight>
130.1894

>  <STRUCTURE_ChemicalType>
defined organic

>  <STRUCTURE_TestedForm_DefinedOrganic>
parent

>  <STRUCTURE_Shown>
tested chemical

>  <TestSubstance_ChemicalName>
1-Azoxypropane

>  <TestSubstance_CASRN>
17697-55-1

>  <TestSubstance_Description>
single chemical compound

>  <STRUCTURE_ChemicalName_IUPAC>
1-[(E)-propyl-NNO-azoxy]propane

>  <STRUCTURE_SMILES>
[N+](=N/CCC)(/CCC)[O-]

>  <STRUCTURE_Parent_SMILES>
[N+](=N/CCC)(/CCC)[O-]

>  <STRUCTURE_InChI>
InChI=1/C6H14N2O/c1-3-5-7-8(9)6-4-2/h3-6H2,1-2H3/b8-7+

>  <STRUCTURE_InChIKey>
NOLAXNLVEYHWHM-BQYQJAHWBD

>  <StudyType>
Carcinogenicity

>  <Endpoint>
TD50; Tumor Target Sites

>  <Species>
rat

>  <TD50_Rat_mg>
0.000241

>  <TD50_Rat_mmol>
0.00000185

>  <ActivityScore_CPDBAS_Rat>
85

>  <TD50_Rat_Note>
harmonic mean of TD50 includes a value for upper 99% confidence limit from study with 100% tumor incidence but no lifetable

>  <TargetSites_Rat_Male>
nasal cavity; skin

>  <ActivityOutcome_CPDBAS_Rat>
active

>  <ActivityOutcome_CPDBAS_SingleCellCall>
active

>  <ActivityOutcome_CPDBAS_MultiCellCall>
active

>  <ActivityOutcome_CPDBAS_MultiCellCall_Details>
multisite active

>  <ChemicalPage_URL>
http://potency.berkeley.edu/chempages/1-AZOXYPROPANE.html

$$$$



  9  8  0  0  0  0  0  0  0  0999 V2000
    2.3049   -1.9937    0.0000 N   0  3  0  0  0  0  0  0  0  0  0  0
    3.4573   -1.3311    0.0000 N   0  0  0  0  0  0  0  0  0  0  0  0
    4.6097   -1.9937    0.0000 C   0  0  0  0  0  0  0  0  0  0  0  0
    5.7622   -1.3311    0.0000 C   0  0  0  0  0  0  0  0  0  0  0  0
    4.6097   -3.3248    0.0000 C   0  0  0  0  0  0  0  0  0  0  0  0
    1.1524   -1.3311    0.0000 C   0  0  0  0  0  0  0  0  0  0  0  0
    1.1524    0.0000    0.0000 C   0  0  0  0  0  0  0  0  0  0  0  0
    0.0000   -1.9937    0.0000 C   0  0  0  0  0  0  0  0  0  0  0  0
    2.3049   -3.3248    0.0000 O   0  5  0  0  0  0  0  0  0  0  0  0
  1  2  2  0  0  0  0
  1  6  1  0  0  0  0
  1  9  1  0  0  0  0
  2  3  1  0  0  0  0
  3  4  1  0  0  0  0
  3  5  1  0  0  0  0
  6  7  1  0  0  0  0
  6  8  1  0  0  0  0
M  END
>  <DSSTox_RID>
20126

>  <DSSTox_CID>
126

>  <DSSTox_Generic_SID>
20126

>  <DSSTox_FileID>
129_CPDBAS_v5d

>  <STRUCTURE_Formula>
C6H14N2O

>  <STRUCTURE_MolecularWeight>
130.1894

>  <STRUCTURE_ChemicalType>
defined organic

>  <STRUCTURE_TestedForm_DefinedOrganic>
parent

>  <STRUCTURE_Shown>
tested chemical

>  <TestSubstance_ChemicalName>
2-Azoxypropane

>  <TestSubstance_CASRN>
17697-53-9

>  <TestSubstance_Description>
single chemical compound

>  <STRUCTURE_ChemicalName_IUPAC>
2-[(Z)-(1-methylethyl)-NNO-azoxy]propane

>  <STRUCTURE_SMILES>
[N+](=N\C(C)C)(/C(C)C)[O-]

>  <STRUCTURE_Parent_SMILES>
[N+](=N\C(C)C)(/C(C)C)[O-]

>  <STRUCTURE_InChI>
InChI=1/C6H14N2O/c1-5(2)7-8(9)6(3)4/h5-6H,1-4H3/b8-7-

>  <STRUCTURE_InChIKey>
GWSLPKWCBFSXCD-FPLPWBNLBD

>  <StudyType>
Carcinogenicity

>  <Endpoint>
TD50; Tumor Target Sites

>  <Species>
rat

>  <TD50_Rat_mg>
0.00268

>  <TD50_Rat_mmol>
0.0000206

>  <ActivityScore_CPDBAS_Rat>
74

>  <TargetSites_Rat_Male>
skin

>  <ActivityOutcome_CPDBAS_Rat>
active

>  <ActivityOutcome_CPDBAS_SingleCellCall>
active

>  <Note_CPDBAS>
CASRN corrected v4a

>  <ChemicalPage_URL>
http://potency.berkeley.edu/chempages/2-AZOXYPROPANE.html

$$$$



 19 20  0  0  0  0  0  0  0  0999 V2000
    5.4706    4.8291    0.0000 N   0  0  0  0  0  0  0  0  0  0  0  0
    4.2859    5.5417    0.0000 C   0  0  0  0  0  0  0  0  0  0  0  0
    4.2859    6.8779    0.0000 N   0  0  0  0  0  0  0  0  0  0  0  0
    6.6554    5.5595    0.0000 C   0  0  0  0  0  0  0  0  0  0  0  0
    6.6554    6.8779    0.0000 C   0  0  0  0  0  0  0  0  0  0  0  0
    5.4706    7.5638    0.0000 C   0  0  0  0  0  0  0  0  0  0  0  0
    3.1101    4.8024    0.0000 O   0  0  0  0  0  0  0  0  0  0  0  0
    5.4706    8.9088    0.0000 O   0  0  0  0  0  0  0  0  0  0  0  0
    7.9114    7.5994    0.0000 C   0  0  0  0  0  0  0  0  0  0  0  0
    5.4706    2.4952    0.0000 C   0  0  2  0  0  0  0  0  0  0  0  0
    3.1991    2.4952    0.0000 C   0  0  1  0  0  0  0  0  0  0  0  0
    4.3483    3.3415    0.0000 O   0  0  0  0  0  0  0  0  0  0  0  0
    3.6267    1.1502    0.0000 C   0  0  2  0  0  0  0  0  0  0  0  0
    5.0431    1.1502    0.0000 C   0  0  0  0  0  0  0  0  0  0  0  0
    1.4119    0.0152    0.0000 N   0  3  0  0  0  0  0  0  0  0  0  0
    0.0000    0.0212    0.0000 N   0  5  0  0  0  0  0  0  0  0  0  0
    2.8073    0.0000    0.0000 N   0  0  0  0  0  0  0  0  0  0  0  0
    1.8719    2.9406    0.0000 C   0  0  0  0  0  0  0  0  0  0  0  0
    1.5690    4.3035    0.0000 O   0  0  0  0  0  0  0  0  0  0  0  0
  2  1  1  0  0  0  0
  4  1  1  0  0  0  0
 10  1  1  1  0  0  0
  3  2  1  0  0  0  0
  7  2  2  0  0  0  0
  6  3  1  0  0  0  0
  5  4  2  0  0  0  0
  6  5  1  0  0  0  0
  9  5  1  0  0  0  0
  8  6  2  0  0  0  0
 12 10  1  0  0  0  0
 14 10  1  0  0  0  0
 12 11  1  0  0  0  0
 13 11  1  0  0  0  0
 11 18  1  1  0  0  0
 14 13  1  0  0  0  0
 13 17  1  6  0  0  0
 17 15  2  0  0  0  0
 16 15  2  0  0  0  0
 19 18  1  0  0  0  0
M  END
>  <DSSTox_RID>
20127

>  <DSSTox_CID>
127

>  <DSSTox_Generic_SID>
20127

>  <DSSTox_FileID>
130_CPDBAS_v5d

>  <STRUCTURE_Formula>
C10H13N5O4

>  <STRUCTURE_MolecularWeight>
267.2413

>  <STRUCTURE_ChemicalType>
defined organic

>  <STRUCTURE_TestedForm_DefinedOrganic>
parent

>  <STRUCTURE_Shown>
tested chemical

>  <TestSubstance_ChemicalName>
AZT

>  <TestSubstance_CASRN>
30516-87-1

>  <TestSubstance_Description>
single chemical compound

>  <ChemicalNote>
stereochem; AZT

>  <STRUCTURE_ChemicalName_IUPAC>
3'-azido-3'-deoxythymidine

>  <STRUCTURE_SMILES>
C\C1=C\N(C(=O)NC1=O)[C@H]2C[C@H](/N=[N+]=[N-])[C@@H](CO)O2

>  <STRUCTURE_Parent_SMILES>
C\C1=C\N(C(=O)NC1=O)[C@H]2C[C@H](/N=[N+]=[N-])[C@@H](CO)O2

>  <STRUCTURE_InChI>
InChI=1/C10H13N5O4/c1-5-3-15(10(18)12-9(5)17)8-2-6(13-14-11)7(4-16)19-8/h3,6-8,16H,2,4H2,1H3,(H,12,17,18)/t6-,7+,8+/m0/s1/f/h12H

>  <STRUCTURE_InChIKey>
HBOMLICNUCNMMY-XTRDCWLADC

>  <StudyType>
Carcinogenicity

>  <Endpoint>
TD50; Tumor Target Sites

>  <Species>
rat; mouse

>  <ActivityOutcome_CPDBAS_Mutagenicity>
active

>  <TD50_Rat_mg>
11600

>  <TD50_Rat_mmol>
43.4

>  <ActivityScore_CPDBAS_Rat>
9

>  <TargetSites_Rat_Male>
no positive results

>  <TargetSites_Rat_Female>
vagina

>  <ActivityOutcome_CPDBAS_Rat>
active

>  <TD50_Mouse_mg>
296

>  <TD50_Mouse_mmol>
1.11

>  <ActivityScore_CPDBAS_Mouse>
28

>  <TD50_Mouse_Note>
TD50 is harmonic mean of more than one positive test

>  <TargetSites_Mouse_Male>
no positive results

>  <TargetSites_Mouse_Female>
vagina

>  <ActivityOutcome_CPDBAS_Mouse>
active

>  <ActivityOutcome_CPDBAS_SingleCellCall>
active

>  <ActivityOutcome_CPDBAS_MultiCellCall>
active

>  <ActivityOutcome_CPDBAS_MultiCellCall_Details>
multispecies active

>  <Note_CPDBAS>
Rat added v2a; Mouse added v2a

>  <NTP_TechnicalReport>
TR 469; additional results included in CPDB

>  <ChemicalPage_URL>
http://potency.berkeley.edu/chempages/AZT.html

$$$$



  9  9  0  0  0  0  0  0  0  0999 V2000
    0.0000   -2.3037    0.0000 O   0  0  0  0  0  0  0  0  0  0  0  0
    1.3315   -2.3037    0.0000 C   0  0  0  0  0  0  0  0  0  0  0  0
    1.9950   -1.1518    0.0000 C   0  0  0  0  0  0  0  0  0  0  0  0
    3.3265   -1.1518    0.0000 C   0  0  0  0  0  0  0  0  0  0  0  0
    3.9899    0.0000    0.0000 O   0  0  0  0  0  0  0  0  0  0  0  0
    3.9899   -2.3037    0.0000 N   0  0  0  0  0  0  0  0  0  0  0  0
    3.3265   -3.4555    0.0000 C   0  0  0  0  0  0  0  0  0  0  0  0
    3.9899   -4.6073    0.0000 O   0  0  0  0  0  0  0  0  0  0  0  0
    1.9950   -3.4555    0.0000 N   0  0  0  0  0  0  0  0  0  0  0  0
  1  2  2  0  0  0  0
  2  3  1  0  0  0  0
  2  9  1  0  0  0  0
  3  4  1  0  0  0  0
  4  5  2  0  0  0  0
  4  6  1  0  0  0  0
  6  7  1  0  0  0  0
  7  8  2  0  0  0  0
  7  9  1  0  0  0  0
M  END
>  <DSSTox_RID>
20129

>  <DSSTox_CID>
129

>  <DSSTox_Generic_SID>
20129

>  <DSSTox_FileID>
132_CPDBAS_v5d

>  <STRUCTURE_Formula>
C4H4N2O3

>  <STRUCTURE_MolecularWeight>
128.0872

>  <STRUCTURE_ChemicalType>
defined organic

>  <STRUCTURE_TestedForm_DefinedOrganic>
parent

>  <STRUCTURE_Shown>
tested chemical

>  <TestSubstance_ChemicalName>
Barbituric acid

>  <TestSubstance_CASRN>
67-52-7

>  <TestSubstance_Description>
single chemical compound

>  <STRUCTURE_ChemicalName_IUPAC>
pyrimidine-2,4,6(1H,3H,5H)-trione

>  <STRUCTURE_SMILES>
O=C1CC(=O)NC(=O)N1

>  <STRUCTURE_Parent_SMILES>
O=C1CC(=O)NC(=O)N1

>  <STRUCTURE_InChI>
InChI=1/C4H4N2O3/c7-2-1-3(8)6-4(9)5-2/h1H2,(H2,5,6,7,8,9)/f/h5-6H

>  <STRUCTURE_InChIKey>
HNYOPLTXPVRDBG-JYEHRPOACG

>  <StudyType>
Carcinogenicity

>  <Endpoint>
TD50; Tumor Target Sites

>  <Species>
rat

>  <ActivityScore_CPDBAS_Rat>
0

>  <TD50_Rat_Note>
no positive results

>  <TargetSites_Rat_Male>
no positive results

>  <ActivityOutcome_CPDBAS_Rat>
inactive

>  <ActivityOutcome_CPDBAS_SingleCellCall>
inactive

>  <ChemicalPage_URL>
http://potency.berkeley.edu/chempages/BARBITURIC%20ACID.html

$$$$



 21 23  0  0  0  0  0  0  0  0999 V2000
    4.6025   -3.9858    0.0000 C   0  0  0  0  0  0  0  0  0  0  0  0
    3.4427   -3.3230    0.0000 C   0  0  0  0  0  0  0  0  0  0  0  0
    5.7440   -3.3230    0.0000 C   0  0  0  0  0  0  0  0  0  0  0  0
    4.6025   -5.3113    0.0000 C   0  0  0  0  0  0  0  0  0  0  0  0
    2.3013   -3.9858    0.0000 C   0  0  0  0  0  0  0  0  0  0  0  0
    3.4427   -1.9975    0.0000 N   0  0  0  0  0  0  0  0  0  0  0  0
    5.7440   -1.9975    0.0000 N   0  0  0  0  0  0  0  0  0  0  0  0
    7.0143   -3.7373    0.0000 N   0  0  0  0  0  0  0  0  0  0  0  0
    5.7440   -5.9833    0.0000 C   0  0  0  0  0  0  0  0  0  0  0  0
    2.3013   -5.3113    0.0000 C   0  0  0  0  0  0  0  0  0  0  0  0
    1.1414   -3.3230    0.0000 C   0  0  0  0  0  0  0  0  0  0  0  0
    4.6025   -1.3255    0.0000 C   0  0  0  0  0  0  0  0  0  0  0  0
    7.0143   -1.5833    0.0000 N   0  0  0  0  0  0  0  0  0  0  0  0
    7.8059   -2.6511    0.0000 C   0  0  0  0  0  0  0  0  0  0  0  0
    6.9038   -5.3113    0.0000 O   0  0  0  0  0  0  0  0  0  0  0  0
    1.1414   -5.9833    0.0000 C   0  0  0  0  0  0  0  0  0  0  0  0
    0.0000   -3.9858    0.0000 C   0  0  0  0  0  0  0  0  0  0  0  0
    4.6025    0.0000    0.0000 N   0  0  0  0  0  0  0  0  0  0  0  0
    8.0452   -5.9833    0.0000 C   0  0  0  0  0  0  0  0  0  0  0  0
    0.0000   -5.3113    0.0000 C   0  0  0  0  0  0  0  0  0  0  0  0
    9.2051   -5.3113    0.0000 C   0  0  0  0  0  0  0  0  0  0  0  0
  1  2  2  0  0  0  0
  1  3  1  0  0  0  0
  1  4  1  0  0  0  0
  2  5  1  0  0  0  0
  2  6  1  0  0  0  0
  3  7  1  0  0  0  0
  3  8  2  0  0  0  0
  4  9  1  0  0  0  0
  5 10  2  0  0  0  0
  5 11  1  0  0  0  0
  6 12  2  0  0  0  0
  7 13  1  0  0  0  0
  7 12  1  0  0  0  0
  8 14  1  0  0  0  0
  9 15  1  0  0  0  0
 10 16  1  0  0  0  0
 11 17  2  0  0  0  0
 12 18  1  0  0  0  0
 13 14  2  0  0  0  0
 15 19  1  0  0  0  0
 16 20  2  0  0  0  0
 17 20  1  0  0  0  0
 19 21  1  0  0  0  0
M  END
>  <DSSTox_RID>
20132

>  <DSSTox_CID>
132

>  <DSSTox_Generic_SID>
20132

>  <DSSTox_FileID>
135_CPDBAS_v5d

>  <STRUCTURE_Formula>
C15H17N5O

>  <STRUCTURE_MolecularWeight>
283.3284

>  <STRUCTURE_ChemicalType>
defined organic

>  <STRUCTURE_TestedForm_DefinedOrganic>
parent

>  <STRUCTURE_Shown>
tested chemical

>  <TestSubstance_ChemicalName>
Bemitradine

>  <TestSubstance_CASRN>
88133-11-3

>  <TestSubstance_Description>
single chemical compound

>  <STRUCTURE_ChemicalName_IUPAC>
8-[2-(ethyloxy)ethyl]-7-phenyl[1,2,4]triazolo[1,5-c]pyrimidin-5-amine

>  <STRUCTURE_SMILES>
NC2=NC(C3=CC=CC=C3)=C(CCOCC)C1=NC=NN12

>  <STRUCTURE_Parent_SMILES>
NC2=NC(C3=CC=CC=C3)=C(CCOCC)C1=NC=NN12

>  <STRUCTURE_InChI>
InChI=1/C15H17N5O/c1-2-21-9-8-12-13(11-6-4-3-5-7-11)19-15(16)20-14(12)17-10-18-20/h3-7,10H,2,8-9H2,1H3,(H2,16,19)/f/h16H2

>  <STRUCTURE_InChIKey>
OZSPQIXKOVJJGE-ZHLVXTBQCE

>  <StudyType>
Carcinogenicity

>  <Endpoint>
TD50; Tumor Target Sites

>  <Species>
rat

>  <TD50_Rat_mg>
548

>  <TD50_Rat_mmol>
1.93

>  <ActivityScore_CPDBAS_Rat>
23

>  <TD50_Rat_Note>
TD50 is harmonic mean of more than one positive test

>  <TargetSites_Rat_Male>
liver

>  <TargetSites_Rat_Female>
liver; mammary gland

>  <ActivityOutcome_CPDBAS_Rat>
active

>  <ActivityOutcome_CPDBAS_SingleCellCall>
active

>  <ActivityOutcome_CPDBAS_MultiCellCall>
active

>  <ActivityOutcome_CPDBAS_MultiCellCall_Details>
multisite active; multisex active

>  <Note_CPDBAS>
TargetSites_Rat modified v3a

>  <ChemicalPage_URL>
http://potency.berkeley.edu/chempages/BEMITRADINE.html

$$$$



 21 22  0  0  0  0  0  0  0  0999 V2000
    1.1524   -1.9882    0.0000 O   0  0  0  0  0  0  0  0  0  0  0  0
    1.1524   -3.3178    0.0000 C   0  0  0  0  0  0  0  0  0  0  0  0
    2.3048   -3.9890    0.0000 C   0  0  0  0  0  0  0  0  0  0  0  0
    3.4571   -3.3178    0.0000 C   0  0  0  0  0  0  0  0  0  0  0  0
    4.6095   -3.9890    0.0000 C   0  0  0  0  0  0  0  0  0  0  0  0
    4.6095   -5.3187    0.0000 C   0  0  0  0  0  0  0  0  0  0  0  0
    3.4571   -5.9772    0.0000 C   0  0  0  0  0  0  0  0  0  0  0  0
    2.3048   -5.3187    0.0000 C   0  0  0  0  0  0  0  0  0  0  0  0
    1.1524   -5.9772    0.0000 O   0  0  0  0  0  0  0  0  0  0  0  0
    5.7619   -3.3178    0.0000 N   0  0  0  0  0  0  0  0  0  0  0  0
    6.9016   -3.9890    0.0000 N   0  0  0  0  0  0  0  0  0  0  0  0
    8.0540   -3.3178    0.0000 C   0  0  0  0  0  0  0  0  0  0  0  0
    8.0540   -1.9882    0.0000 C   0  0  0  0  0  0  0  0  0  0  0  0
    9.2063   -1.3297    0.0000 C   0  0  0  0  0  0  0  0  0  0  0  0
   10.3587   -1.9882    0.0000 C   0  0  0  0  0  0  0  0  0  0  0  0
   10.3587   -3.3178    0.0000 C   0  0  0  0  0  0  0  0  0  0  0  0
    9.2063   -3.9890    0.0000 C   0  0  0  0  0  0  0  0  0  0  0  0
   11.5111   -1.3297    0.0000 C   0  0  0  0  0  0  0  0  0  0  0  0
   11.5111    0.0000    0.0000 O   0  0  0  0  0  0  0  0  0  0  0  0
   12.6635   -1.9882    0.0000 O   0  0  0  0  0  0  0  0  0  0  0  0
    0.0000   -3.9890    0.0000 O   0  0  0  0  0  0  0  0  0  0  0  0
  1  2  2  0  0  0  0
  2  3  1  0  0  0  0
  2 21  1  0  0  0  0
  3  4  2  0  0  0  0
  3  8  1  0  0  0  0
  4  5  1  0  0  0  0
  5  6  2  0  0  0  0
  5 10  1  0  0  0  0
  6  7  1  0  0  0  0
  7  8  2  0  0  0  0
  8  9  1  0  0  0  0
 10 11  2  0  0  0  0
 11 12  1  0  0  0  0
 12 13  2  0  0  0  0
 12 17  1  0  0  0  0
 13 14  1  0  0  0  0
 14 15  2  0  0  0  0
 15 16  1  0  0  0  0
 15 18  1  0  0  0  0
 16 17  2  0  0  0  0
 18 19  2  0  0  0  0
 18 20  1  0  0  0  0
M  END
>  <DSSTox_RID>
20133

>  <DSSTox_CID>
133

>  <DSSTox_Generic_SID>
20133

>  <DSSTox_FileID>
136_CPDBAS_v5d

>  <STRUCTURE_Formula>
C14H10N2O5

>  <STRUCTURE_MolecularWeight>
286.2434

>  <STRUCTURE_ChemicalType>
defined organic

>  <STRUCTURE_TestedForm_DefinedOrganic>
parent

>  <STRUCTURE_Shown>
tested chemical

>  <TestSubstance_ChemicalName>
Benzalazine

>  <TestSubstance_CASRN>
64896-26-0

>  <TestSubstance_Description>
single chemical compound

>  <STRUCTURE_ChemicalName_IUPAC>
5-[(E)-(4-carboxyphenyl)diazenyl]-2-hydroxybenzoic acid

>  <STRUCTURE_SMILES>
O=C(C1=CC(=CC=C1O)/N=N/C2=CC=C(C=C2)C(=O)O)O

>  <STRUCTURE_Parent_SMILES>
O=C(C1=CC(=CC=C1O)/N=N/C2=CC=C(C=C2)C(=O)O)O

>  <STRUCTURE_InChI>
InChI=1/C14H10N2O5/c17-12-6-5-10(7-11(12)14(20)21)16-15-9-3-1-8(2-4-9)13(18)19/h1-7,17H,(H,18,19)(H,20,21)/b16-15+/f/h18,20H

>  <STRUCTURE_InChIKey>
JNVGBRQYZHTBTP-GIXAOCDHDU

>  <StudyType>
Carcinogenicity

>  <Endpoint>
TD50; Tumor Target Sites

>  <Species>
rat; mouse

>  <ActivityScore_CPDBAS_Rat>
0

>  <TD50_Rat_Note>
no positive results

>  <TargetSites_Rat_Male>
no positive results

>  <TargetSites_Rat_Female>
no positive results

>  <ActivityOutcome_CPDBAS_Rat>
inactive

>  <ActivityScore_CPDBAS_Mouse>
0

>  <TD50_Mouse_Note>
no positive results

>  <TargetSites_Mouse_Male>
no positive results

>  <TargetSites_Mouse_Female>
no positive results

>  <ActivityOutcome_CPDBAS_Mouse>
inactive

>  <ActivityOutcome_CPDBAS_SingleCellCall>
inactive

>  <ActivityOutcome_CPDBAS_MultiCellCall>
inactive

>  <ActivityOutcome_CPDBAS_MultiCellCall_Details>
multisex inactive; multispecies inactive

>  <ChemicalPage_URL>
http://potency.berkeley.edu/chempages/BENZALAZINE.html

$$$$



  8  8  0  0  0  0  0  0  0  0999 V2000
    0.0000    0.0000    0.0000 O   0  0  0  0  0  0  0  0  0  0  0  0
    0.6654   -1.1540    0.0000 C   0  0  0  0  0  0  0  0  0  0  0  0
    1.9962   -1.1540    0.0000 C   0  0  0  0  0  0  0  0  0  0  0  0
    2.6569    0.0000    0.0000 C   0  0  0  0  0  0  0  0  0  0  0  0
    3.9877    0.0000    0.0000 C   0  0  0  0  0  0  0  0  0  0  0  0
    4.6531   -1.1540    0.0000 C   0  0  0  0  0  0  0  0  0  0  0  0
    3.9877   -2.3033    0.0000 C   0  0  0  0  0  0  0  0  0  0  0  0
    2.6569   -2.3033    0.0000 C   0  0  0  0  0  0  0  0  0  0  0  0
  1  2  2  0  0  0  0
  2  3  1  0  0  0  0
  3  4  2  0  0  0  0
  3  8  1  0  0  0  0
  4  5  1  0  0  0  0
  5  6  2  0  0  0  0
  6  7  1  0  0  0  0
  7  8  2  0  0  0  0
M  END
>  <DSSTox_RID>
20134

>  <DSSTox_CID>
134

>  <DSSTox_Generic_SID>
39241

>  <DSSTox_FileID>
137_CPDBAS_v5d

>  <STRUCTURE_Formula>
C7H6O

>  <STRUCTURE_MolecularWeight>
106.1219

>  <STRUCTURE_ChemicalType>
defined organic

>  <STRUCTURE_TestedForm_DefinedOrganic>
parent

>  <STRUCTURE_Shown>
tested chemical

>  <TestSubstance_ChemicalName>
Benzaldehyde

>  <TestSubstance_CASRN>
100-52-7

>  <TestSubstance_Description>
single chemical compound

>  <STRUCTURE_ChemicalName_IUPAC>
benzaldehyde

>  <STRUCTURE_SMILES>
O=CC1=CC=CC=C1

>  <STRUCTURE_Parent_SMILES>
O=CC1=CC=CC=C1

>  <STRUCTURE_InChI>
InChI=1/C7H6O/c8-6-7-4-2-1-3-5-7/h1-6H

>  <STRUCTURE_InChIKey>
HUMNYLRZRPPJDN-UHFFFAOYAE

>  <StudyType>
Carcinogenicity

>  <Endpoint>
TD50; Tumor Target Sites

>  <Species>
rat; mouse

>  <ActivityOutcome_CPDBAS_Mutagenicity>
inactive

>  <ActivityScore_CPDBAS_Rat>
0

>  <TD50_Rat_Note>
no positive results

>  <TargetSites_Rat_Male>
no positive results

>  <TargetSites_Rat_Female>
no positive results

>  <ActivityOutcome_CPDBAS_Rat>
inactive

>  <TD50_Mouse_mg>
1490

>  <TD50_Mouse_mmol>
14

>  <ActivityScore_CPDBAS_Mouse>
15

>  <TD50_Mouse_Note>
TD50 is harmonic mean of more than one positive test

>  <TargetSites_Mouse_Male>
stomach

>  <TargetSites_Mouse_Female>
stomach

>  <ActivityOutcome_CPDBAS_Mouse>
active

>  <ActivityOutcome_CPDBAS_SingleCellCall>
active

>  <ActivityOutcome_CPDBAS_MultiCellCall>
active

>  <ActivityOutcome_CPDBAS_MultiCellCall_Details>
multisex active

>  <NTP_TechnicalReport>
TR 378

>  <ChemicalPage_URL>
http://potency.berkeley.edu/chempages/BENZALDEHYDE.html

$$$$



  6  6  0  0  0  0  0  0  0  0999 V2000
    2.3036   -1.9950    0.0000 C   0  0  0  0  0  0  0  0  0  0  0  0
    1.1518   -2.6600    0.0000 C   0  0  0  0  0  0  0  0  0  0  0  0
    0.0000   -1.9950    0.0000 C   0  0  0  0  0  0  0  0  0  0  0  0
    0.0000   -0.6650    0.0000 C   0  0  0  0  0  0  0  0  0  0  0  0
    1.1518    0.0000    0.0000 C   0  0  0  0  0  0  0  0  0  0  0  0
    2.3036   -0.6650    0.0000 C   0  0  0  0  0  0  0  0  0  0  0  0
  1  2  2  0  0  0  0
  1  6  1  0  0  0  0
  2  3  1  0  0  0  0
  3  4  2  0  0  0  0
  4  5  1  0  0  0  0
  5  6  2  0  0  0  0
M  END
>  <DSSTox_RID>
20135

>  <DSSTox_CID>
135

>  <DSSTox_Generic_SID>
39242

>  <DSSTox_FileID>
138_CPDBAS_v5d

>  <STRUCTURE_Formula>
C6H6

>  <STRUCTURE_MolecularWeight>
78.1118

>  <STRUCTURE_ChemicalType>
defined organic

>  <STRUCTURE_TestedForm_DefinedOrganic>
parent

>  <STRUCTURE_Shown>
tested chemical

>  <TestSubstance_ChemicalName>
Benzene

>  <TestSubstance_CASRN>
71-43-2

>  <TestSubstance_Description>
single chemical compound

>  <STRUCTURE_ChemicalName_IUPAC>
benzene

>  <STRUCTURE_SMILES>
C1=CC=CC=C1

>  <STRUCTURE_Parent_SMILES>
C1=CC=CC=C1

>  <STRUCTURE_InChI>
InChI=1/C6H6/c1-2-4-6-5-3-1/h1-6H

>  <STRUCTURE_InChIKey>
UHOVQNZJYSORNB-UHFFFAOYAH

>  <StudyType>
Carcinogenicity

>  <Endpoint>
TD50; Tumor Target Sites

>  <Species>
rat; mouse

>  <ActivityOutcome_CPDBAS_Mutagenicity>
inactive

>  <TD50_Rat_mg>
169

>  <TD50_Rat_mmol>
2.16

>  <ActivityScore_CPDBAS_Rat>
22

>  <TD50_Rat_Note>
TD50 is harmonic mean of more than one positive test

>  <TargetSites_Rat_Male>
ear Zymbals gland; nasal cavity; oral cavity; skin; stomach; vascular system

>  <TargetSites_Rat_Female>
ear Zymbals gland; nasal cavity; oral cavity; stomach; vascular system

>  <ActivityOutcome_CPDBAS_Rat>
active

>  <TD50_Mouse_mg>
77.5

>  <TD50_Mouse_mmol>
0.992

>  <ActivityScore_CPDBAS_Mouse>
28

>  <TD50_Mouse_Note>
TD50 is harmonic mean of more than one positive test; greater than ten-fold variation among TD50 values for positive results

>  <TargetSites_Mouse_Male>
ear Zymbals gland; harderian gland; hematopoietic system; lung; preputial gland

>  <TargetSites_Mouse_Female>
ear Zymbals gland; hematopoietic system; lung; mammary gland; ovary

>  <ActivityOutcome_CPDBAS_Mouse>
active

>  <ActivityOutcome_CPDBAS_SingleCellCall>
active

>  <ActivityOutcome_CPDBAS_MultiCellCall>
active

>  <ActivityOutcome_CPDBAS_MultiCellCall_Details>
multisite active; multisex active; multispecies active

>  <NTP_TechnicalReport>
TR 289;  additional results included in CPDB

>  <ChemicalPage_URL>
http://potency.berkeley.edu/chempages/BENZENE.html

$$$$



 14 14  0  0  0  0  0  0  0  0999 V2000
    3.9891   -3.4567    0.0000 S   0  0  0  0  0  0  0  0  0  0  0  0
    3.3254   -4.6113    0.0000 N   0  0  0  0  0  0  0  0  0  0  0  0
    1.9980   -4.6113    0.0000 N   0  0  0  0  0  0  0  0  0  0  0  0
    1.3274   -5.7589    0.0000 C   0  0  0  0  0  0  0  0  0  0  0  0
    1.9980   -6.9134    0.0000 N   0  0  0  0  0  0  0  0  0  0  0  0
    0.0000   -5.7589    0.0000 S   0  0  0  0  0  0  0  0  0  0  0  0
    2.8414   -2.7930    0.0000 O   0  0  0  0  0  0  0  0  0  0  0  0
    5.1436   -4.1204    0.0000 O   0  0  0  0  0  0  0  0  0  0  0  0
    4.6597   -2.3022    0.0000 C   0  0  0  0  0  0  0  0  0  0  0  0
    5.9870   -2.3022    0.0000 C   0  0  0  0  0  0  0  0  0  0  0  0
    6.6507   -1.1545    0.0000 C   0  0  0  0  0  0  0  0  0  0  0  0
    5.9870    0.0000    0.0000 C   0  0  0  0  0  0  0  0  0  0  0  0
    4.6597    0.0000    0.0000 C   0  0  0  0  0  0  0  0  0  0  0  0
    3.9891   -1.1545    0.0000 C   0  0  0  0  0  0  0  0  0  0  0  0
  1  2  1  0  0  0  0
  1  7  2  0  0  0  0
  1  8  2  0  0  0  0
  1  9  1  0  0  0  0
  2  3  1  0  0  0  0
  3  4  1  0  0  0  0
  4  5  1  0  0  0  0
  4  6  2  0  0  0  0
  9 10  2  0  0  0  0
  9 14  1  0  0  0  0
 10 11  1  0  0  0  0
 11 12  2  0  0  0  0
 12 13  1  0  0  0  0
 13 14  2  0  0  0  0
M  END
>  <DSSTox_RID>
20136

>  <DSSTox_CID>
136

>  <DSSTox_Generic_SID>
20136

>  <DSSTox_FileID>
140_CPDBAS_v5d

>  <STRUCTURE_Formula>
C7H9N3O2S2

>  <STRUCTURE_MolecularWeight>
231.287

>  <STRUCTURE_ChemicalType>
defined organic

>  <STRUCTURE_TestedForm_DefinedOrganic>
parent

>  <STRUCTURE_Shown>
tested chemical

>  <TestSubstance_ChemicalName>
Benzenesulphonohydrazide

>  <TestSubstance_CASRN>
5351-65-5

>  <TestSubstance_Description>
single chemical compound

>  <STRUCTURE_ChemicalName_IUPAC>
2-(phenylsulfonyl)hydrazinecarbothioamide

>  <STRUCTURE_SMILES>
S(NNC(N)=S)(=O)(=O)C1=CC=CC=C1

>  <STRUCTURE_Parent_SMILES>
S(NNC(N)=S)(=O)(=O)C1=CC=CC=C1

>  <STRUCTURE_InChI>
InChI=1/C7H9N3O2S2/c8-7(13)9-10-14(11,12)6-4-2-1-3-5-6/h1-5,10H,(H3,8,9,13)/f/h9H,8H2

>  <STRUCTURE_InChIKey>
JWPWVPPTDSULMI-ZLUQDFOACT

>  <StudyType>
Carcinogenicity

>  <Endpoint>
TD50; Tumor Target Sites

>  <Species>
mouse

>  <ActivityScore_CPDBAS_Mouse>
0

>  <TD50_Mouse_Note>
no positive results

>  <TargetSites_Mouse_Female>
no positive results

>  <ActivityOutcome_CPDBAS_Mouse>
inactive

>  <ActivityOutcome_CPDBAS_SingleCellCall>
inactive

>  <ChemicalPage_URL>
http://potency.berkeley.edu/chempages/BENZENESULPHONOHYDRAZIDE.html

$$$$



 14 15  0  0  0  0  0  0  0  0999 V2000
    9.3153   -1.1458    0.0000 N   0  0  0  0  0  0  0  0  0  0  0  0
    7.9832   -1.1458    0.0000 C   0  0  0  0  0  0  0  0  0  0  0  0
    7.3218   -2.3009    0.0000 C   0  0  0  0  0  0  0  0  0  0  0  0
    5.9897   -2.3009    0.0000 C   0  0  0  0  0  0  0  0  0  0  0  0
    5.3190   -1.1458    0.0000 C   0  0  0  0  0  0  0  0  0  0  0  0
    3.9963   -1.1458    0.0000 C   0  0  0  0  0  0  0  0  0  0  0  0
    3.3256   -2.3009    0.0000 C   0  0  0  0  0  0  0  0  0  0  0  0
    1.9935   -2.3009    0.0000 C   0  0  0  0  0  0  0  0  0  0  0  0
    1.3321   -1.1458    0.0000 C   0  0  0  0  0  0  0  0  0  0  0  0
    0.0000   -1.1458    0.0000 N   0  0  0  0  0  0  0  0  0  0  0  0
    1.9935    0.0000    0.0000 C   0  0  0  0  0  0  0  0  0  0  0  0
    3.3256    0.0000    0.0000 C   0  0  0  0  0  0  0  0  0  0  0  0
    5.9897    0.0000    0.0000 C   0  0  0  0  0  0  0  0  0  0  0  0
    7.3218    0.0000    0.0000 C   0  0  0  0  0  0  0  0  0  0  0  0
  1  2  1  0  0  0  0
  2  3  2  0  0  0  0
  2 14  1  0  0  0  0
  3  4  1  0  0  0  0
  4  5  2  0  0  0  0
  5  6  1  0  0  0  0
  5 13  1  0  0  0  0
  6  7  2  0  0  0  0
  6 12  1  0  0  0  0
  7  8  1  0  0  0  0
  8  9  2  0  0  0  0
  9 10  1  0  0  0  0
  9 11  1  0  0  0  0
 11 12  2  0  0  0  0
 13 14  2  0  0  0  0
M  END
>  <DSSTox_RID>
20137

>  <DSSTox_CID>
137

>  <DSSTox_Generic_SID>
20137

>  <DSSTox_FileID>
141_CPDBAS_v5d

>  <STRUCTURE_Formula>
C12H12N2

>  <STRUCTURE_MolecularWeight>
184.2371

>  <STRUCTURE_ChemicalType>
defined organic

>  <STRUCTURE_TestedForm_DefinedOrganic>
parent

>  <STRUCTURE_Shown>
tested chemical

>  <TestSubstance_ChemicalName>
Benzidine

>  <TestSubstance_CASRN>
92-87-5

>  <TestSubstance_Description>
single chemical compound

>  <STRUCTURE_ChemicalName_IUPAC>
biphenyl-4,4'-diamine

>  <STRUCTURE_SMILES>
NC1=CC=C(C2=CC=C(N)C=C2)C=C1

>  <STRUCTURE_Parent_SMILES>
NC1=CC=C(C2=CC=C(N)C=C2)C=C1

>  <STRUCTURE_InChI>
InChI=1/C12H12N2/c13-11-5-1-9(2-6-11)10-3-7-12(14)8-4-10/h1-8H,13-14H2

>  <STRUCTURE_InChIKey>
HFACYLZERDEVSX-UHFFFAOYAX

>  <StudyType>
Carcinogenicity

>  <Endpoint>
TD50; Tumor Target Sites

>  <Species>
rat; mouse

>  <ActivityOutcome_CPDBAS_Mutagenicity>
active

>  <TD50_Rat_mg>
1.73

>  <TD50_Rat_mmol>
0.00939

>  <ActivityScore_CPDBAS_Rat>
47

>  <TargetSites_Rat_BothSexes>
hematopoietic system; liver; mammary gland

>  <ActivityOutcome_CPDBAS_Rat>
active

>  <TD50_Mouse_mg>
19.9

>  <TD50_Mouse_mmol>
0.108

>  <ActivityScore_CPDBAS_Mouse>
39

>  <TargetSites_Mouse_Male>
liver

>  <ActivityOutcome_CPDBAS_Mouse>
active

>  <ActivityOutcome_CPDBAS_SingleCellCall>
active

>  <ActivityOutcome_CPDBAS_MultiCellCall>
active

>  <ActivityOutcome_CPDBAS_MultiCellCall_Details>
multisite active; multispecies active

>  <Note_CPDBAS>
Mouse added v3a

>  <ChemicalPage_URL>
http://potency.berkeley.edu/chempages/BENZIDINE.html

$$$$



 20 24  0  0  0  0  0  0  0  0999 V2000
    4.6494    0.0000    0.0000 C   0  0  0  0  0  0  0  0  0  0  0  0
    5.9803    0.0000    0.0000 C   0  0  0  0  0  0  0  0  0  0  0  0
    6.6457   -1.1494    0.0000 C   0  0  0  0  0  0  0  0  0  0  0  0
    7.9766   -1.1494    0.0000 C   0  0  0  0  0  0  0  0  0  0  0  0
    8.6421   -2.3074    0.0000 C   0  0  0  0  0  0  0  0  0  0  0  0
    7.9766   -3.4568    0.0000 C   0  0  0  0  0  0  0  0  0  0  0  0
    6.6457   -3.4568    0.0000 C   0  0  0  0  0  0  0  0  0  0  0  0
    5.9803   -4.6062    0.0000 C   0  0  0  0  0  0  0  0  0  0  0  0
    4.6494   -4.6062    0.0000 C   0  0  0  0  0  0  0  0  0  0  0  0
    3.9926   -3.4568    0.0000 C   0  0  0  0  0  0  0  0  0  0  0  0
    4.6494   -2.3074    0.0000 C   0  0  0  0  0  0  0  0  0  0  0  0
    5.9803   -2.3074    0.0000 C   0  0  0  0  0  0  0  0  0  0  0  0
    3.9926   -1.1494    0.0000 C   0  0  0  0  0  0  0  0  0  0  0  0
    2.6618   -1.1494    0.0000 C   0  0  0  0  0  0  0  0  0  0  0  0
    1.9963   -2.3074    0.0000 C   0  0  0  0  0  0  0  0  0  0  0  0
    2.6618   -3.4568    0.0000 C   0  0  0  0  0  0  0  0  0  0  0  0
    0.6654   -2.3074    0.0000 C   0  0  0  0  0  0  0  0  0  0  0  0
    0.0000   -1.1494    0.0000 C   0  0  0  0  0  0  0  0  0  0  0  0
    0.6654    0.0000    0.0000 C   0  0  0  0  0  0  0  0  0  0  0  0
    1.9963    0.0000    0.0000 C   0  0  0  0  0  0  0  0  0  0  0  0
  1  2  2  0  0  0  0
  1 13  1  0  0  0  0
  2  3  1  0  0  0  0
  3  4  2  0  0  0  0
  3 12  1  0  0  0  0
  4  5  1  0  0  0  0
  5  6  2  0  0  0  0
  6  7  1  0  0  0  0
  7  8  2  0  0  0  0
  7 12  1  0  0  0  0
  8  9  1  0  0  0  0
  9 10  2  0  0  0  0
 10 11  1  0  0  0  0
 10 16  1  0  0  0  0
 11 12  2  0  0  0  0
 11 13  1  0  0  0  0
 13 14  2  0  0  0  0
 14 15  1  0  0  0  0
 14 20  1  0  0  0  0
 15 16  2  0  0  0  0
 15 17  1  0  0  0  0
 17 18  2  0  0  0  0
 18 19  1  0  0  0  0
 19 20  2  0  0  0  0
M  END
>  <DSSTox_RID>
20139

>  <DSSTox_CID>
139

>  <DSSTox_Generic_SID>
20139

>  <DSSTox_FileID>
143_CPDBAS_v5d

>  <STRUCTURE_Formula>
C20H12

>  <STRUCTURE_MolecularWeight>
252.3093

>  <STRUCTURE_ChemicalType>
defined organic

>  <STRUCTURE_TestedForm_DefinedOrganic>
parent

>  <STRUCTURE_Shown>
tested chemical

>  <TestSubstance_ChemicalName>
Benzo(a)pyrene

>  <TestSubstance_CASRN>
50-32-8

>  <TestSubstance_Description>
single chemical compound

>  <STRUCTURE_ChemicalName_IUPAC>
benzo[pqr]tetraphene

>  <STRUCTURE_SMILES>
C1=CC2=CC=CC3=CC=C4C(=C23)C1=C5C(=C4)C=CC=C5

>  <STRUCTURE_Parent_SMILES>
C1=CC2=CC=CC3=CC=C4C(=C23)C1=C5C(=C4)C=CC=C5

>  <STRUCTURE_InChI>
InChI=1/C20H12/c1-2-7-17-15(4-1)12-16-9-8-13-5-3-6-14-10-11-18(17)20(16)19(13)14/h1-12H

>  <STRUCTURE_InChIKey>
FMMWHPNWAFZXNH-UHFFFAOYAQ

>  <StudyType>
Carcinogenicity

>  <Endpoint>
TD50; Tumor Target Sites

>  <Species>
rat; mouse

>  <ActivityOutcome_CPDBAS_Mutagenicity>
active

>  <TD50_Rat_mg>
0.956

>  <TD50_Rat_mmol>
0.00379

>  <ActivityScore_CPDBAS_Rat>
51

>  <TargetSites_Rat_BothSexes>
stomach

>  <ActivityOutcome_CPDBAS_Rat>
active

>  <TD50_Mouse_mg>
3.47

>  <TD50_Mouse_mmol>
0.0138

>  <ActivityScore_CPDBAS_Mouse>
49

>  <TD50_Mouse_Note>
TD50 is harmonic mean of more than one positive test

>  <TargetSites_Mouse_Male>
esophagus

>  <TargetSites_Mouse_Female>
esophagus; oral cavity; stomach

>  <ActivityOutcome_CPDBAS_Mouse>
active

>  <ActivityOutcome_CPDBAS_SingleCellCall>
active

>  <ActivityOutcome_CPDBAS_MultiCellCall>
active

>  <ActivityOutcome_CPDBAS_MultiCellCall_Details>
multisite active; multisex active; multispecies active

>  <Note_CPDBAS>
Mouse added v5a

>  <ChemicalPage_URL>
http://potency.berkeley.edu/chempages/BENZO(a)PYRENE.html

$$$$



  9 10  0  0  0  0  0  0  0  0999 V2000
    0.7831   -0.2523    0.0000 C   0  0  0  0  0  0  0  0  0  0  0  0
    0.0000   -1.3269    0.0000 C   0  0  0  0  0  0  0  0  0  0  0  0
    0.7831   -2.4059    0.0000 O   0  0  0  0  0  0  0  0  0  0  0  0
    2.0448   -1.9926    0.0000 C   0  0  0  0  0  0  0  0  0  0  0  0
    2.0448   -0.6613    0.0000 C   0  0  0  0  0  0  0  0  0  0  0  0
    3.1977    0.0000    0.0000 C   0  0  0  0  0  0  0  0  0  0  0  0
    4.3506   -0.6613    0.0000 C   0  0  0  0  0  0  0  0  0  0  0  0
    4.3506   -1.9926    0.0000 C   0  0  0  0  0  0  0  0  0  0  0  0
    3.1977   -2.6582    0.0000 C   0  0  0  0  0  0  0  0  0  0  0  0
  1  2  2  0  0  0  0
  1  5  1  0  0  0  0
  2  3  1  0  0  0  0
  3  4  1  0  0  0  0
  4  5  2  0  0  0  0
  4  9  1  0  0  0  0
  5  6  1  0  0  0  0
  6  7  2  0  0  0  0
  7  8  1  0  0  0  0
  8  9  2  0  0  0  0
M  END
>  <DSSTox_RID>
20141

>  <DSSTox_CID>
141

>  <DSSTox_Generic_SID>
20141

>  <DSSTox_FileID>
145_CPDBAS_v5d

>  <STRUCTURE_Formula>
C8H6O

>  <STRUCTURE_MolecularWeight>
118.1326

>  <STRUCTURE_ChemicalType>
defined organic

>  <STRUCTURE_TestedForm_DefinedOrganic>
parent

>  <STRUCTURE_Shown>
tested chemical

>  <TestSubstance_ChemicalName>
Benzofuran

>  <TestSubstance_CASRN>
271-89-6

>  <TestSubstance_Description>
single chemical compound

>  <STRUCTURE_ChemicalName_IUPAC>
1-benzofuran

>  <STRUCTURE_SMILES>
C1=COC2=C1C=CC=C2

>  <STRUCTURE_Parent_SMILES>
C1=COC2=C1C=CC=C2

>  <STRUCTURE_InChI>
InChI=1/C8H6O/c1-2-4-8-7(3-1)5-6-9-8/h1-6H

>  <STRUCTURE_InChIKey>
IANQTJSKSUMEQM-UHFFFAOYAU

>  <StudyType>
Carcinogenicity

>  <Endpoint>
TD50; Tumor Target Sites

>  <Species>
rat; mouse

>  <ActivityOutcome_CPDBAS_Mutagenicity>
inactive

>  <TD50_Rat_mg>
424

>  <TD50_Rat_mmol>
3.59

>  <ActivityScore_CPDBAS_Rat>
20

>  <TargetSites_Rat_Male>
no positive results

>  <TargetSites_Rat_Female>
kidney

>  <ActivityOutcome_CPDBAS_Rat>
active

>  <TD50_Mouse_mg>
25.1

>  <TD50_Mouse_mmol>
0.212

>  <ActivityScore_CPDBAS_Mouse>
36

>  <TD50_Mouse_Note>
TD50 is harmonic mean of more than one positive test

>  <TargetSites_Mouse_Male>
liver; lung; stomach

>  <TargetSites_Mouse_Female>
liver; lung; stomach

>  <ActivityOutcome_CPDBAS_Mouse>
active

>  <ActivityOutcome_CPDBAS_SingleCellCall>
active

>  <ActivityOutcome_CPDBAS_MultiCellCall>
active

>  <ActivityOutcome_CPDBAS_MultiCellCall_Details>
multisite active; multisex active; multispecies active

>  <NTP_TechnicalReport>
TR 370

>  <ChemicalPage_URL>
http://potency.berkeley.edu/chempages/BENZOFURAN.html

$$$$



 14 15  0  0  0  0  0  0  0  0999 V2000
    6.9132   -3.9889    0.0000 N   0  0  0  0  0  0  0  0  0  0  0  0
    5.7587   -3.3252    0.0000 C   0  0  0  0  0  0  0  0  0  0  0  0
    4.6111   -3.9889    0.0000 N   0  0  0  0  0  0  0  0  0  0  0  0
    3.4566   -3.3252    0.0000 C   0  0  0  0  0  0  0  0  0  0  0  0
    3.4566   -1.9979    0.0000 N   0  0  0  0  0  0  0  0  0  0  0  0
    4.6111   -1.3273    0.0000 C   0  0  0  0  0  0  0  0  0  0  0  0
    5.7587   -1.9979    0.0000 N   0  0  0  0  0  0  0  0  0  0  0  0
    4.6111    0.0000    0.0000 N   0  0  0  0  0  0  0  0  0  0  0  0
    2.3021   -3.9889    0.0000 C   0  0  0  0  0  0  0  0  0  0  0  0
    2.3021   -5.3231    0.0000 C   0  0  0  0  0  0  0  0  0  0  0  0
    1.1545   -5.9868    0.0000 C   0  0  0  0  0  0  0  0  0  0  0  0
    0.0000   -5.3231    0.0000 C   0  0  0  0  0  0  0  0  0  0  0  0
    0.0000   -3.9889    0.0000 C   0  0  0  0  0  0  0  0  0  0  0  0
    1.1545   -3.3252    0.0000 C   0  0  0  0  0  0  0  0  0  0  0  0
  1  2  1  0  0  0  0
  2  3  2  0  0  0  0
  2  7  1  0  0  0  0
  3  4  1  0  0  0  0
  4  5  2  0  0  0  0
  4  9  1  0  0  0  0
  5  6  1  0  0  0  0
  6  7  2  0  0  0  0
  6  8  1  0  0  0  0
  9 10  2  0  0  0  0
  9 14  1  0  0  0  0
 10 11  1  0  0  0  0
 11 12  2  0  0  0  0
 12 13  1  0  0  0  0
 13 14  2  0  0  0  0
M  END
>  <DSSTox_RID>
20142

>  <DSSTox_CID>
142

>  <DSSTox_Generic_SID>
20142

>  <DSSTox_FileID>
146_CPDBAS_v5d

>  <STRUCTURE_Formula>
C9H9N5

>  <STRUCTURE_MolecularWeight>
187.2013

>  <STRUCTURE_ChemicalType>
defined organic

>  <STRUCTURE_TestedForm_DefinedOrganic>
parent

>  <STRUCTURE_Shown>
tested chemical

>  <TestSubstance_ChemicalName>
Benzoguanamine

>  <TestSubstance_CASRN>
91-76-9

>  <TestSubstance_Description>
single chemical compound

>  <STRUCTURE_ChemicalName_IUPAC>
6-phenyl-1,3,5-triazine-2,4-diamine

>  <STRUCTURE_SMILES>
NC1=NC(=NC(=N1)N)C2=CC=CC=C2

>  <STRUCTURE_Parent_SMILES>
NC1=NC(=NC(=N1)N)C2=CC=CC=C2

>  <STRUCTURE_InChI>
InChI=1/C9H9N5/c10-8-12-7(13-9(11)14-8)6-4-2-1-3-5-6/h1-5H,(H4,10,11,12,13,14)/f/h10-11H2

>  <STRUCTURE_InChIKey>
GZVHEAJQGPRDLQ-OUBFLUSYCO

>  <StudyType>
Carcinogenicity

>  <Endpoint>
TD50; Tumor Target Sites

>  <Species>
rat; mouse

>  <ActivityScore_CPDBAS_Rat>
0

>  <TD50_Rat_Note>
no positive results

>  <TargetSites_Rat_Male>
no positive results

>  <ActivityOutcome_CPDBAS_Rat>
inactive

>  <ActivityScore_CPDBAS_Mouse>
0

>  <TD50_Mouse_Note>
no positive results

>  <TargetSites_Mouse_Male>
no positive results

>  <TargetSites_Mouse_Female>
no positive results

>  <ActivityOutcome_CPDBAS_Mouse>
inactive

>  <ActivityOutcome_CPDBAS_SingleCellCall>
inactive

>  <ActivityOutcome_CPDBAS_MultiCellCall>
inactive

>  <ActivityOutcome_CPDBAS_MultiCellCall_Details>
multisex inactive; multispecies inactive

>  <ChemicalPage_URL>
http://potency.berkeley.edu/chempages/BENZOGUANAMINE.html

$$$$



  9  9  0  0  0  0  0  0  0  0999 V2000
    0.0000    0.0000    0.0000 O   0  0  0  0  0  0  0  0  0  0  0  0
    0.7000    1.2091    0.0000 C   0  0  0  0  0  0  0  0  0  0  0  0
    0.0000    2.4231    0.0000 O   0  0  0  0  0  0  0  0  0  0  0  0
    2.1000    1.2091    0.0000 C   0  0  0  0  0  0  0  0  0  0  0  0
    2.7952    2.4231    0.0000 C   0  0  0  0  0  0  0  0  0  0  0  0
    4.1952    2.4231    0.0000 C   0  0  0  0  0  0  0  0  0  0  0  0
    4.8952    1.2091    0.0000 C   0  0  0  0  0  0  0  0  0  0  0  0
    4.1952    0.0000    0.0000 C   0  0  0  0  0  0  0  0  0  0  0  0
    2.7952    0.0000    0.0000 C   0  0  0  0  0  0  0  0  0  0  0  0
  1  2  1  0  0  0  0
  2  3  2  0  0  0  0
  2  4  1  0  0  0  0
  4  5  2  0  0  0  0
  4  9  1  0  0  0  0
  5  6  1  0  0  0  0
  6  7  2  0  0  0  0
  7  8  1  0  0  0  0
  8  9  2  0  0  0  0
M  END
>  <DSSTox_RID>
20143

>  <DSSTox_CID>
143

>  <DSSTox_Generic_SID>
20143

>  <DSSTox_FileID>
147_CPDBAS_v5d

>  <STRUCTURE_Formula>
C7H6O2

>  <STRUCTURE_MolecularWeight>
122.1213

>  <STRUCTURE_ChemicalType>
defined organic

>  <STRUCTURE_TestedForm_DefinedOrganic>
parent

>  <STRUCTURE_Shown>
tested chemical

>  <TestSubstance_ChemicalName>
Benzoic acid

>  <TestSubstance_CASRN>
65-85-0

>  <TestSubstance_Description>
single chemical compound

>  <STRUCTURE_ChemicalName_IUPAC>
benzoic acid

>  <STRUCTURE_SMILES>
OC(=O)C1=CC=CC=C1

>  <STRUCTURE_Parent_SMILES>
OC(=O)C1=CC=CC=C1

>  <STRUCTURE_InChI>
InChI=1/C7H6O2/c8-7(9)6-4-2-1-3-5-6/h1-5H,(H,8,9)/f/h8H

>  <STRUCTURE_InChIKey>
WPYMKLBDIGXBTP-FZOZFQFYCI

>  <StudyType>
Carcinogenicity

>  <Endpoint>
TD50; Tumor Target Sites

>  <Species>
rat

>  <ActivityOutcome_CPDBAS_Mutagenicity>
inactive

>  <ActivityScore_CPDBAS_Rat>
0

>  <TD50_Rat_Note>
no positive results

>  <TargetSites_Rat_Male>
no positive results

>  <ActivityOutcome_CPDBAS_Rat>
inactive

>  <ActivityOutcome_CPDBAS_SingleCellCall>
inactive

>  <ChemicalPage_URL>
http://potency.berkeley.edu/chempages/BENZOIC%20ACID.html

$$$$



 16 17  0  0  0  0  0  0  0  0999 V2000
    5.7559   -5.3191    0.0000 C   0  0  0  0  0  0  0  0  0  0  0  0
    4.6071   -5.9833    0.0000 C   0  0  0  0  0  0  0  0  0  0  0  0
    3.4523   -5.3191    0.0000 C   0  0  0  0  0  0  0  0  0  0  0  0
    3.4523   -3.9908    0.0000 C   0  0  0  0  0  0  0  0  0  0  0  0
    4.6071   -3.3267    0.0000 C   0  0  0  0  0  0  0  0  0  0  0  0
    5.7559   -3.9908    0.0000 C   0  0  0  0  0  0  0  0  0  0  0  0
    4.6071   -1.9924    0.0000 C   0  0  3  0  0  0  0  0  0  0  0  0
    3.4523   -1.3283    0.0000 C   0  0  0  0  0  0  0  0  0  0  0  0
    2.3036   -1.9924    0.0000 C   0  0  0  0  0  0  0  0  0  0  0  0
    2.3036   -3.3267    0.0000 C   0  0  0  0  0  0  0  0  0  0  0  0
    1.1488   -3.9908    0.0000 C   0  0  0  0  0  0  0  0  0  0  0  0
    0.0000   -3.3267    0.0000 C   0  0  0  0  0  0  0  0  0  0  0  0
    0.0000   -1.9924    0.0000 C   0  0  0  0  0  0  0  0  0  0  0  0
    1.1488   -1.3283    0.0000 C   0  0  0  0  0  0  0  0  0  0  0  0
    3.4523    0.0000    0.0000 O   0  0  0  0  0  0  0  0  0  0  0  0
    5.7559   -1.3283    0.0000 O   0  0  0  0  0  0  0  0  0  0  0  0
  1  2  2  0  0  0  0
  1  6  1  0  0  0  0
  2  3  1  0  0  0  0
  3  4  2  0  0  0  0
  4  5  1  0  0  0  0
  5  6  2  0  0  0  0
  5  7  1  0  0  0  0
  7  8  1  0  0  0  0
  7 16  1  0  0  0  0
  8  9  1  0  0  0  0
  8 15  2  0  0  0  0
  9 10  2  0  0  0  0
  9 14  1  0  0  0  0
 10 11  1  0  0  0  0
 11 12  2  0  0  0  0
 12 13  1  0  0  0  0
 13 14  2  0  0  0  0
M  END
>  <DSSTox_RID>
20144

>  <DSSTox_CID>
144

>  <DSSTox_Generic_SID>
20144

>  <DSSTox_FileID>
148_CPDBAS_v5d

>  <STRUCTURE_Formula>
C14H12O2

>  <STRUCTURE_MolecularWeight>
212.2439

>  <STRUCTURE_ChemicalType>
defined organic

>  <STRUCTURE_TestedForm_DefinedOrganic>
parent

>  <STRUCTURE_Shown>
tested chemical

>  <TestSubstance_ChemicalName>
Benzoin

>  <TestSubstance_CASRN>
119-53-9

>  <TestSubstance_Description>
single chemical compound

>  <STRUCTURE_ChemicalName_IUPAC>
2-hydroxy-1,2-diphenylethanone

>  <STRUCTURE_SMILES>
C1=CC=CC(=C1)C(C(C2=CC=CC=C2)=O)O

>  <STRUCTURE_Parent_SMILES>
C1=CC=CC(=C1)C(C(C2=CC=CC=C2)=O)O

>  <STRUCTURE_InChI>
InChI=1/C14H12O2/c15-13(11-7-3-1-4-8-11)14(16)12-9-5-2-6-10-12/h1-10,13,15H

>  <STRUCTURE_InChIKey>
ISAOCJYIOMOJEB-UHFFFAOYAO

>  <StudyType>
Carcinogenicity

>  <Endpoint>
TD50; Tumor Target Sites

>  <Species>
rat; mouse

>  <ActivityOutcome_CPDBAS_Mutagenicity>
inactive

>  <ActivityScore_CPDBAS_Rat>
0

>  <TD50_Rat_Note>
no positive results

>  <TargetSites_Rat_Male>
no positive results

>  <TargetSites_Rat_Female>
no positive results

>  <ActivityOutcome_CPDBAS_Rat>
inactive

>  <ActivityScore_CPDBAS_Mouse>
0

>  <TD50_Mouse_Note>
no positive results

>  <TargetSites_Mouse_Male>
no positive results

>  <TargetSites_Mouse_Female>
no positive results

>  <ActivityOutcome_CPDBAS_Mouse>
inactive

>  <ActivityOutcome_CPDBAS_SingleCellCall>
inactive

>  <ActivityOutcome_CPDBAS_MultiCellCall>
inactive

>  <ActivityOutcome_CPDBAS_MultiCellCall_Details>
multisex inactive; multispecies inactive

>  <NTP_TechnicalReport>
TR 204

>  <ChemicalPage_URL>
http://potency.berkeley.edu/chempages/BENZOIN.html

$$$$



  8  8  0  0  0  0  0  0  0  0999 V2000
    0.0000   -1.1545    0.0000 O   0  0  0  0  0  0  0  0  0  0  0  0
    1.3300   -1.1545    0.0000 C   0  0  0  0  0  0  0  0  0  0  0  0
    1.9950    0.0000    0.0000 C   0  0  0  0  0  0  0  0  0  0  0  0
    3.3250    0.0000    0.0000 C   0  0  0  0  0  0  0  0  0  0  0  0
    3.9900   -1.1545    0.0000 C   0  0  0  0  0  0  0  0  0  0  0  0
    5.3201   -1.1545    0.0000 O   0  0  0  0  0  0  0  0  0  0  0  0
    3.3250   -2.3036    0.0000 C   0  0  0  0  0  0  0  0  0  0  0  0
    1.9950   -2.3036    0.0000 C   0  0  0  0  0  0  0  0  0  0  0  0
  1  2  2  0  0  0  0
  2  3  1  0  0  0  0
  2  8  1  0  0  0  0
  3  4  2  0  0  0  0
  4  5  1  0  0  0  0
  5  6  2  0  0  0  0
  5  7  1  0  0  0  0
  7  8  2  0  0  0  0
M  END
>  <DSSTox_RID>
20145

>  <DSSTox_CID>
145

>  <DSSTox_Generic_SID>
20145

>  <DSSTox_FileID>
149_CPDBAS_v5d

>  <STRUCTURE_Formula>
C6H4O2

>  <STRUCTURE_MolecularWeight>
108.0948

>  <STRUCTURE_ChemicalType>
defined organic

>  <STRUCTURE_TestedForm_DefinedOrganic>
parent

>  <STRUCTURE_Shown>
tested chemical

>  <TestSubstance_ChemicalName>
1,4-Benzoquinone

>  <TestSubstance_CASRN>
106-51-4

>  <TestSubstance_Description>
single chemical compound

>  <STRUCTURE_ChemicalName_IUPAC>
1,4-benzoquinone

>  <STRUCTURE_SMILES>
O=C1C=CC(=O)C=C1

>  <STRUCTURE_Parent_SMILES>
O=C1C=CC(=O)C=C1

>  <STRUCTURE_InChI>
InChI=1/C6H4O2/c7-5-1-2-6(8)4-3-5/h1-4H

>  <STRUCTURE_InChIKey>
AZQWKYJCGOJGHM-UHFFFAOYAR

>  <StudyType>
Carcinogenicity

>  <Endpoint>
TD50; Tumor Target Sites

>  <Species>
mouse

>  <ActivityOutcome_CPDBAS_Mutagenicity>
inactive

>  <TD50_Mouse_mg>
5.07

>  <TD50_Mouse_mmol>
0.0469

>  <ActivityScore_CPDBAS_Mouse>
43

>  <TD50_Mouse_Note>
TD50 is harmonic mean of more than one positive test

>  <TargetSites_Mouse_Male>
hematopoietic system

>  <TargetSites_Mouse_Female>
hematopoietic system

>  <ActivityOutcome_CPDBAS_Mouse>
active

>  <ActivityOutcome_CPDBAS_SingleCellCall>
active

>  <ActivityOutcome_CPDBAS_MultiCellCall>
active

>  <ActivityOutcome_CPDBAS_MultiCellCall_Details>
multisex active

>  <ChemicalPage_URL>
http://potency.berkeley.edu/chempages/1,4-BENZOQUINONE.html

$$$$



 20 23  0  0  0  0  0  0  0  0999 V2000
    8.4554   -1.4072    0.0000 N   0  0  0  0  0  0  0  0  0  0  0  0
    7.6736   -2.4777    0.0000 C   0  0  0  0  0  0  0  0  0  0  0  0
    6.3506   -2.4777    0.0000 S   0  0  0  0  0  0  0  0  0  0  0  0
    5.6770   -1.3351    0.0000 S   0  0  0  0  0  0  0  0  0  0  0  0
    4.3540   -1.3351    0.0000 C   0  0  0  0  0  0  0  0  0  0  0  0
    3.5722   -0.2526    0.0000 N   0  0  0  0  0  0  0  0  0  0  0  0
    2.3093   -0.6615    0.0000 C   0  0  0  0  0  0  0  0  0  0  0  0
    2.3093   -1.9966    0.0000 C   0  0  0  0  0  0  0  0  0  0  0  0
    1.1547   -2.6581    0.0000 C   0  0  0  0  0  0  0  0  0  0  0  0
    0.0000   -1.9966    0.0000 C   0  0  0  0  0  0  0  0  0  0  0  0
    0.0000   -0.6615    0.0000 C   0  0  0  0  0  0  0  0  0  0  0  0
    1.1547    0.0000    0.0000 C   0  0  0  0  0  0  0  0  0  0  0  0
    3.5722   -2.4055    0.0000 S   0  0  0  0  0  0  0  0  0  0  0  0
    8.4554   -3.5602    0.0000 S   0  0  0  0  0  0  0  0  0  0  0  0
    9.7183   -3.1512    0.0000 C   0  0  0  0  0  0  0  0  0  0  0  0
    9.7183   -1.8162    0.0000 C   0  0  0  0  0  0  0  0  0  0  0  0
   10.8730   -1.1547    0.0000 C   0  0  0  0  0  0  0  0  0  0  0  0
   12.0276   -1.8162    0.0000 C   0  0  0  0  0  0  0  0  0  0  0  0
   12.0276   -3.1512    0.0000 C   0  0  0  0  0  0  0  0  0  0  0  0
   10.8730   -3.8128    0.0000 C   0  0  0  0  0  0  0  0  0  0  0  0
  1  2  2  0  0  0  0
  1 16  1  0  0  0  0
  2  3  1  0  0  0  0
  2 14  1  0  0  0  0
  3  4  1  0  0  0  0
  4  5  1  0  0  0  0
  5  6  2  0  0  0  0
  5 13  1  0  0  0  0
  6  7  1  0  0  0  0
  7  8  2  0  0  0  0
  7 12  1  0  0  0  0
  8  9  1  0  0  0  0
  8 13  1  0  0  0  0
  9 10  2  0  0  0  0
 10 11  1  0  0  0  0
 11 12  2  0  0  0  0
 14 15  1  0  0  0  0
 15 16  2  0  0  0  0
 15 20  1  0  0  0  0
 16 17  1  0  0  0  0
 17 18  2  0  0  0  0
 18 19  1  0  0  0  0
 19 20  2  0  0  0  0
M  END
>  <DSSTox_RID>
20146

>  <DSSTox_CID>
146

>  <DSSTox_Generic_SID>
20146

>  <DSSTox_FileID>
150_CPDBAS_v5d

>  <STRUCTURE_Formula>
C14H8N2S4

>  <STRUCTURE_MolecularWeight>
332.4867

>  <STRUCTURE_ChemicalType>
defined organic

>  <STRUCTURE_TestedForm_DefinedOrganic>
parent

>  <STRUCTURE_Shown>
tested chemical

>  <TestSubstance_ChemicalName>
Benzothiazyl disulfide

>  <TestSubstance_CASRN>
120-78-5

>  <TestSubstance_Description>
single chemical compound

>  <STRUCTURE_ChemicalName_IUPAC>
2,2'-dithiobis(1,3-benzothiazole)

>  <STRUCTURE_SMILES>
N1=C(SSC2=NC3=C(C=CC=C3)S2)SC4=C1C=CC=C4

>  <STRUCTURE_Parent_SMILES>
N1=C(SSC2=NC3=C(C=CC=C3)S2)SC4=C1C=CC=C4

>  <STRUCTURE_InChI>
InChI=1/C14H8N2S4/c1-3-7-11-9(5-1)15-13(17-11)19-20-14-16-10-6-2-4-8-12(10)18-14/h1-8H

>  <STRUCTURE_InChIKey>
AFZSMODLJJCVPP-UHFFFAOYAY

>  <StudyType>
Carcinogenicity

>  <Endpoint>
TD50; Tumor Target Sites

>  <Species>
mouse

>  <ActivityOutcome_CPDBAS_Mutagenicity>
active

>  <ActivityScore_CPDBAS_Mouse>
0

>  <TD50_Mouse_Note>
no positive results

>  <TargetSites_Mouse_Male>
no positive results

>  <TargetSites_Mouse_Female>
no positive results

>  <ActivityOutcome_CPDBAS_Mouse>
inactive

>  <ActivityOutcome_CPDBAS_SingleCellCall>
inactive

>  <ActivityOutcome_CPDBAS_MultiCellCall>
inactive

>  <ActivityOutcome_CPDBAS_MultiCellCall_Details>
multisex inactive

>  <ChemicalPage_URL>
http://potency.berkeley.edu/chempages/BENZOTHIAZYL%20DISULFIDE.html

$$$$



  9 10  0  0  0  0  0  0  0  0999 V2000
    0.7831   -2.4059    0.0000 N   0  0  0  0  0  0  0  0  0  0  0  0
    2.0448   -1.9926    0.0000 C   0  0  0  0  0  0  0  0  0  0  0  0
    2.0448   -0.6613    0.0000 C   0  0  0  0  0  0  0  0  0  0  0  0
    3.1977    0.0000    0.0000 C   0  0  0  0  0  0  0  0  0  0  0  0
    4.3506   -0.6613    0.0000 C   0  0  0  0  0  0  0  0  0  0  0  0
    4.3506   -1.9926    0.0000 C   0  0  0  0  0  0  0  0  0  0  0  0
    3.1977   -2.6582    0.0000 C   0  0  0  0  0  0  0  0  0  0  0  0
    0.7831   -0.2523    0.0000 N   0  0  0  0  0  0  0  0  0  0  0  0
    0.0000   -1.3269    0.0000 N   0  0  0  0  0  0  0  0  0  0  0  0
  1  2  1  0  0  0  0
  1  9  1  0  0  0  0
  2  3  2  0  0  0  0
  2  7  1  0  0  0  0
  3  4  1  0  0  0  0
  3  8  1  0  0  0  0
  4  5  2  0  0  0  0
  5  6  1  0  0  0  0
  6  7  2  0  0  0  0
  8  9  2  0  0  0  0
M  END
>  <DSSTox_RID>
20147

>  <DSSTox_CID>
147

>  <DSSTox_Generic_SID>
20147

>  <DSSTox_FileID>
151_CPDBAS_v5d

>  <STRUCTURE_Formula>
C6H5N3

>  <STRUCTURE_MolecularWeight>
119.124

>  <STRUCTURE_ChemicalType>
defined organic

>  <STRUCTURE_TestedForm_DefinedOrganic>
parent

>  <STRUCTURE_Shown>
tested chemical

>  <TestSubstance_ChemicalName>
1H-Benzotriazole

>  <TestSubstance_CASRN>
95-14-7

>  <TestSubstance_Description>
single chemical compound

>  <ChemicalNote>
tautomers

>  <STRUCTURE_ChemicalName_IUPAC>
1H-benzotriazole

>  <STRUCTURE_SMILES>
N1C2=C(C=CC=C2)N=N1

>  <STRUCTURE_Parent_SMILES>
N1C2=C(C=CC=C2)N=N1

>  <STRUCTURE_InChI>
InChI=1/C6H5N3/c1-2-4-6-5(3-1)7-9-8-6/h1-4H,(H,7,8,9)/f/h7H

>  <STRUCTURE_InChIKey>
QRUDEWIWKLJBPS-QDQILVOLCZ

>  <StudyType>
Carcinogenicity

>  <Endpoint>
TD50; Tumor Target Sites

>  <Species>
rat; mouse

>  <ActivityOutcome_CPDBAS_Mutagenicity>
active

>  <ActivityScore_CPDBAS_Rat>
0

>  <TD50_Rat_Note>
no positive results

>  <TargetSites_Rat_Male>
no positive results

>  <TargetSites_Rat_Female>
no positive results

>  <ActivityOutcome_CPDBAS_Rat>
inactive

>  <ActivityScore_CPDBAS_Mouse>
0

>  <TD50_Mouse_Note>
no positive results

>  <TargetSites_Mouse_Male>
no positive results

>  <TargetSites_Mouse_Female>
no positive results

>  <ActivityOutcome_CPDBAS_Mouse>
inactive

>  <ActivityOutcome_CPDBAS_SingleCellCall>
inactive

>  <ActivityOutcome_CPDBAS_MultiCellCall>
inactive

>  <ActivityOutcome_CPDBAS_MultiCellCall_Details>
multisex inactive; multispecies inactive

>  <NTP_TechnicalReport>
TR 88

>  <ChemicalPage_URL>
http://potency.berkeley.edu/chempages/1H-BENZOTRIAZOLE.html

$$$$



 10 10  0  0  0  0  0  0  0  0999 V2000
    3.9873    0.0000    0.0000 Cl  0  0  0  0  0  0  0  0  0  0  0  0
    3.9873   -1.3291    0.0000 C   0  0  0  0  0  0  0  0  0  0  0  0
    2.6582   -1.3291    0.0000 C   0  0  0  0  0  0  0  0  0  0  0  0
    1.9936   -2.4827    0.0000 C   0  0  0  0  0  0  0  0  0  0  0  0
    0.6645   -2.4827    0.0000 C   0  0  0  0  0  0  0  0  0  0  0  0
    0.0000   -1.3291    0.0000 C   0  0  0  0  0  0  0  0  0  0  0  0
    0.6645   -0.1754    0.0000 C   0  0  0  0  0  0  0  0  0  0  0  0
    1.9936   -0.1754    0.0000 C   0  0  0  0  0  0  0  0  0  0  0  0
    5.3164   -1.3291    0.0000 Cl  0  0  0  0  0  0  0  0  0  0  0  0
    3.9873   -2.6582    0.0000 Cl  0  0  0  0  0  0  0  0  0  0  0  0
  1  2  1  0  0  0  0
  2  3  1  0  0  0  0
  2  9  1  0  0  0  0
  2 10  1  0  0  0  0
  3  4  2  0  0  0  0
  3  8  1  0  0  0  0
  4  5  1  0  0  0  0
  5  6  2  0  0  0  0
  6  7  1  0  0  0  0
  7  8  2  0  0  0  0
M  END
>  <DSSTox_RID>
20148

>  <DSSTox_CID>
148

>  <DSSTox_Generic_SID>
20148

>  <DSSTox_FileID>
152_CPDBAS_v5d

>  <STRUCTURE_Formula>
C7H5Cl3

>  <STRUCTURE_MolecularWeight>
195.4736

>  <STRUCTURE_ChemicalType>
defined organic

>  <STRUCTURE_TestedForm_DefinedOrganic>
parent

>  <STRUCTURE_Shown>
tested chemical

>  <TestSubstance_ChemicalName>
Benzotrichloride

>  <TestSubstance_CASRN>
98-07-7

>  <TestSubstance_Description>
single chemical compound

>  <STRUCTURE_ChemicalName_IUPAC>
(trichloromethyl)benzene

>  <STRUCTURE_SMILES>
ClC(C1=CC=CC=C1)(Cl)Cl

>  <STRUCTURE_Parent_SMILES>
ClC(C1=CC=CC=C1)(Cl)Cl

>  <STRUCTURE_InChI>
InChI=1/C7H5Cl3/c8-7(9,10)6-4-2-1-3-5-6/h1-5H

>  <STRUCTURE_InChIKey>
XEMRAKSQROQPBR-UHFFFAOYAF

>  <StudyType>
Carcinogenicity

>  <Endpoint>
TD50; Tumor Target Sites

>  <Species>
mouse

>  <ActivityOutcome_CPDBAS_Mutagenicity>
active

>  <TD50_Mouse_mg>
0.396

>  <TD50_Mouse_mmol>
0.00203

>  <ActivityScore_CPDBAS_Mouse>
59

>  <TargetSites_Mouse_Female>
hematopoietic system; lung; stomach

>  <ActivityOutcome_CPDBAS_Mouse>
active

>  <ActivityOutcome_CPDBAS_SingleCellCall>
active

>  <ActivityOutcome_CPDBAS_MultiCellCall>
active

>  <ActivityOutcome_CPDBAS_MultiCellCall_Details>
multisite active

>  <ChemicalPage_URL>
http://potency.berkeley.edu/chempages/BENZOTRICHLORIDE.html

$$$$



 10 10  0  0  0  0  0  0  0  0999 V2000
    4.6545   -3.4536    0.0000 O   0  0  0  0  0  0  0  0  0  0  0  0
    3.9889   -2.3040    0.0000 C   0  0  0  0  0  0  0  0  0  0  0  0
    2.6577   -2.3040    0.0000 C   0  0  0  0  0  0  0  0  0  0  0  0
    1.9968   -3.4536    0.0000 C   0  0  0  0  0  0  0  0  0  0  0  0
    0.6656   -3.4536    0.0000 C   0  0  0  0  0  0  0  0  0  0  0  0
    0.0000   -2.3040    0.0000 C   0  0  0  0  0  0  0  0  0  0  0  0
    0.6656   -1.1497    0.0000 C   0  0  0  0  0  0  0  0  0  0  0  0
    1.9968   -1.1497    0.0000 C   0  0  0  0  0  0  0  0  0  0  0  0
    4.6545   -1.1497    0.0000 N   0  0  0  0  0  0  0  0  0  0  0  0
    3.9889    0.0000    0.0000 N   0  0  0  0  0  0  0  0  0  0  0  0
  1  2  2  0  0  0  0
  2  3  1  0  0  0  0
  2  9  1  0  0  0  0
  3  4  2  0  0  0  0
  3  8  1  0  0  0  0
  4  5  1  0  0  0  0
  5  6  2  0  0  0  0
  6  7  1  0  0  0  0
  7  8  2  0  0  0  0
  9 10  1  0  0  0  0
M  END
>  <DSSTox_RID>
20149

>  <DSSTox_CID>
149

>  <DSSTox_Generic_SID>
20149

>  <DSSTox_FileID>
153_CPDBAS_v5d

>  <STRUCTURE_Formula>
C7H8N2O

>  <STRUCTURE_MolecularWeight>
136.153

>  <STRUCTURE_ChemicalType>
defined organic

>  <STRUCTURE_TestedForm_DefinedOrganic>
parent

>  <STRUCTURE_Shown>
tested chemical

>  <TestSubstance_ChemicalName>
Benzoyl hydrazine

>  <TestSubstance_CASRN>
613-94-5

>  <TestSubstance_Description>
single chemical compound

>  <STRUCTURE_ChemicalName_IUPAC>
benzohydrazide

>  <STRUCTURE_SMILES>
O=C(C1=CC=CC=C1)NN

>  <STRUCTURE_Parent_SMILES>
O=C(C1=CC=CC=C1)NN

>  <STRUCTURE_InChI>
InChI=1/C7H8N2O/c8-9-7(10)6-4-2-1-3-5-6/h1-5H,8H2,(H,9,10)/f/h9H

>  <STRUCTURE_InChIKey>
WARCRYXKINZHGQ-BGGKNDAXCF

>  <StudyType>
Carcinogenicity

>  <Endpoint>
TD50; Tumor Target Sites

>  <Species>
mouse

>  <TD50_Mouse_mg>
9.59

>  <TD50_Mouse_mmol>
0.0704

>  <ActivityScore_CPDBAS_Mouse>
41

>  <TD50_Mouse_Note>
TD50 is harmonic mean of more than one positive test

>  <TargetSites_Mouse_Male>
hematopoietic system; lung

>  <TargetSites_Mouse_Female>
hematopoietic system; lung

>  <ActivityOutcome_CPDBAS_Mouse>
active

>  <ActivityOutcome_CPDBAS_SingleCellCall>
active

>  <ActivityOutcome_CPDBAS_MultiCellCall>
active

>  <ActivityOutcome_CPDBAS_MultiCellCall_Details>
multisite active; multisex active

>  <ChemicalPage_URL>
http://potency.berkeley.edu/chempages/BENZOYL%20HYDRAZINE.html

$$$$



 11 11  0  0  0  0  0  0  0  0999 V2000
    0.0000   -2.3079    0.0000 C   0  0  0  0  0  0  0  0  0  0  0  0
    0.6651   -1.1573    0.0000 C   0  0  0  0  0  0  0  0  0  0  0  0
    0.0000    0.0000    0.0000 O   0  0  0  0  0  0  0  0  0  0  0  0
    1.9953   -1.1573    0.0000 O   0  0  0  0  0  0  0  0  0  0  0  0
    2.6605   -2.3079    0.0000 C   0  0  0  0  0  0  0  0  0  0  0  0
    3.9907   -2.3079    0.0000 C   0  0  0  0  0  0  0  0  0  0  0  0
    4.6558   -1.1573    0.0000 C   0  0  0  0  0  0  0  0  0  0  0  0
    5.9860   -1.1573    0.0000 C   0  0  0  0  0  0  0  0  0  0  0  0
    6.6511   -2.3079    0.0000 C   0  0  0  0  0  0  0  0  0  0  0  0
    5.9860   -3.4586    0.0000 C   0  0  0  0  0  0  0  0  0  0  0  0
    4.6558   -3.4586    0.0000 C   0  0  0  0  0  0  0  0  0  0  0  0
  1  2  1  0  0  0  0
  2  3  2  0  0  0  0
  2  4  1  0  0  0  0
  4  5  1  0  0  0  0
  5  6  1  0  0  0  0
  6  7  2  0  0  0  0
  6 11  1  0  0  0  0
  7  8  1  0  0  0  0
  8  9  2  0  0  0  0
  9 10  1  0  0  0  0
 10 11  2  0  0  0  0
M  END
>  <DSSTox_RID>
20151

>  <DSSTox_CID>
151

>  <DSSTox_Generic_SID>
20151

>  <DSSTox_FileID>
154_CPDBAS_v5d

>  <STRUCTURE_Formula>
C9H10O2

>  <STRUCTURE_MolecularWeight>
150.1745

>  <STRUCTURE_ChemicalType>
defined organic

>  <STRUCTURE_TestedForm_DefinedOrganic>
parent

>  <STRUCTURE_Shown>
tested chemical

>  <TestSubstance_ChemicalName>
Benzyl acetate

>  <TestSubstance_CASRN>
140-11-4

>  <TestSubstance_Description>
single chemical compound

>  <STRUCTURE_ChemicalName_IUPAC>
benzyl acetate

>  <STRUCTURE_SMILES>
CC(=O)OCC1=CC=CC=C1

>  <STRUCTURE_Parent_SMILES>
CC(=O)OCC1=CC=CC=C1

>  <STRUCTURE_InChI>
InChI=1/C9H10O2/c1-8(10)11-7-9-5-3-2-4-6-9/h2-6H,7H2,1H3

>  <STRUCTURE_InChIKey>
QUKGYYKBILRGFE-UHFFFAOYAD

>  <StudyType>
Carcinogenicity

>  <Endpoint>
TD50; Tumor Target Sites

>  <Species>
rat; mouse

>  <ActivityOutcome_CPDBAS_Mutagenicity>
inactive

>  <ActivityScore_CPDBAS_Rat>
0

>  <TD50_Rat_Note>
no positive results

>  <TargetSites_Rat_Male>
no positive results

>  <TargetSites_Rat_Female>
no positive results

>  <ActivityOutcome_CPDBAS_Rat>
inactive

>  <TD50_Mouse_mg>
1440

>  <TD50_Mouse_mmol>
9.59

>  <ActivityScore_CPDBAS_Mouse>
17

>  <TD50_Mouse_Note>
TD50 is harmonic mean of more than one positive test

>  <TargetSites_Mouse_Male>
liver; stomach

>  <TargetSites_Mouse_Female>
liver; stomach

>  <ActivityOutcome_CPDBAS_Mouse>
active

>  <ActivityOutcome_CPDBAS_SingleCellCall>
active

>  <ActivityOutcome_CPDBAS_MultiCellCall>
active

>  <ActivityOutcome_CPDBAS_MultiCellCall_Details>
multisite active; multisex active

>  <NTP_TechnicalReport>
TR 250

>  <ChemicalPage_URL>
http://potency.berkeley.edu/chempages/BENZYL%20ACETATE.html

$$$$



  8  8  0  0  0  0  0  0  0  0999 V2000
    0.0000    0.0000    0.0000 O   0  0  0  0  0  0  0  0  0  0  0  0
    0.6654   -1.1540    0.0000 C   0  0  0  0  0  0  0  0  0  0  0  0
    1.9962   -1.1540    0.0000 C   0  0  0  0  0  0  0  0  0  0  0  0
    2.6569    0.0000    0.0000 C   0  0  0  0  0  0  0  0  0  0  0  0
    3.9877    0.0000    0.0000 C   0  0  0  0  0  0  0  0  0  0  0  0
    4.6531   -1.1540    0.0000 C   0  0  0  0  0  0  0  0  0  0  0  0
    3.9877   -2.3033    0.0000 C   0  0  0  0  0  0  0  0  0  0  0  0
    2.6569   -2.3033    0.0000 C   0  0  0  0  0  0  0  0  0  0  0  0
  1  2  1  0  0  0  0
  2  3  1  0  0  0  0
  3  4  2  0  0  0  0
  3  8  1  0  0  0  0
  4  5  1  0  0  0  0
  5  6  2  0  0  0  0
  6  7  1  0  0  0  0
  7  8  2  0  0  0  0
M  END
>  <DSSTox_RID>
20152

>  <DSSTox_CID>
152

>  <DSSTox_Generic_SID>
20152

>  <DSSTox_FileID>
155_CPDBAS_v5d

>  <STRUCTURE_Formula>
C7H8O

>  <STRUCTURE_MolecularWeight>
108.1378

>  <STRUCTURE_ChemicalType>
defined organic

>  <STRUCTURE_TestedForm_DefinedOrganic>
parent

>  <STRUCTURE_Shown>
tested chemical

>  <TestSubstance_ChemicalName>
Benzyl alcohol

>  <TestSubstance_CASRN>
100-51-6

>  <TestSubstance_Description>
single chemical compound

>  <STRUCTURE_ChemicalName_IUPAC>
phenylmethanol

>  <STRUCTURE_SMILES>
OCC1=CC=CC=C1

>  <STRUCTURE_Parent_SMILES>
OCC1=CC=CC=C1

>  <STRUCTURE_InChI>
InChI=1/C7H8O/c8-6-7-4-2-1-3-5-7/h1-5,8H,6H2

>  <STRUCTURE_InChIKey>
WVDDGKGOMKODPV-UHFFFAOYAH

>  <StudyType>
Carcinogenicity

>  <Endpoint>
TD50; Tumor Target Sites

>  <Species>
rat; mouse

>  <ActivityOutcome_CPDBAS_Mutagenicity>
inactive

>  <ActivityScore_CPDBAS_Rat>
0

>  <TD50_Rat_Note>
no positive results

>  <TargetSites_Rat_Male>
no positive results

>  <TargetSites_Rat_Female>
no positive results

>  <ActivityOutcome_CPDBAS_Rat>
inactive

>  <ActivityScore_CPDBAS_Mouse>
0

>  <TD50_Mouse_Note>
no positive results

>  <TargetSites_Mouse_Male>
no positive results

>  <TargetSites_Mouse_Female>
no positive results

>  <ActivityOutcome_CPDBAS_Mouse>
inactive

>  <ActivityOutcome_CPDBAS_SingleCellCall>
inactive

>  <ActivityOutcome_CPDBAS_MultiCellCall>
inactive

>  <ActivityOutcome_CPDBAS_MultiCellCall_Details>
multisex inactive; multispecies inactive

>  <NTP_TechnicalReport>
TR 343

>  <ChemicalPage_URL>
http://potency.berkeley.edu/chempages/BENZYL%20ALCOHOL.html

$$$$



  8  8  0  0  0  0  0  0  0  0999 V2000
    0.0000    0.0000    0.0000 Cl  0  0  0  0  0  0  0  0  0  0  0  0
    0.6654   -1.1540    0.0000 C   0  0  0  0  0  0  0  0  0  0  0  0
    1.9962   -1.1540    0.0000 C   0  0  0  0  0  0  0  0  0  0  0  0
    2.6569    0.0000    0.0000 C   0  0  0  0  0  0  0  0  0  0  0  0
    3.9877    0.0000    0.0000 C   0  0  0  0  0  0  0  0  0  0  0  0
    4.6531   -1.1540    0.0000 C   0  0  0  0  0  0  0  0  0  0  0  0
    3.9877   -2.3033    0.0000 C   0  0  0  0  0  0  0  0  0  0  0  0
    2.6569   -2.3033    0.0000 C   0  0  0  0  0  0  0  0  0  0  0  0
  1  2  1  0  0  0  0
  2  3  1  0  0  0  0
  3  4  2  0  0  0  0
  3  8  1  0  0  0  0
  4  5  1  0  0  0  0
  5  6  2  0  0  0  0
  6  7  1  0  0  0  0
  7  8  2  0  0  0  0
M  END
>  <DSSTox_RID>
20153

>  <DSSTox_CID>
153

>  <DSSTox_Generic_SID>
20153

>  <DSSTox_FileID>
156_CPDBAS_v5d

>  <STRUCTURE_Formula>
C7H7Cl

>  <STRUCTURE_MolecularWeight>
126.5835

>  <STRUCTURE_ChemicalType>
defined organic

>  <STRUCTURE_TestedForm_DefinedOrganic>
parent

>  <STRUCTURE_Shown>
tested chemical

>  <TestSubstance_ChemicalName>
Benzyl chloride

>  <TestSubstance_CASRN>
100-44-7

>  <TestSubstance_Description>
single chemical compound

>  <STRUCTURE_ChemicalName_IUPAC>
(chloromethyl)benzene

>  <STRUCTURE_SMILES>
ClCC1=CC=CC=C1

>  <STRUCTURE_Parent_SMILES>
ClCC1=CC=CC=C1

>  <STRUCTURE_InChI>
InChI=1/C7H7Cl/c8-6-7-4-2-1-3-5-7/h1-5H,6H2

>  <STRUCTURE_InChIKey>
KCXMKQUNVWSEMD-UHFFFAOYAV

>  <StudyType>
Carcinogenicity

>  <Endpoint>
TD50; Tumor Target Sites

>  <Species>
rat; mouse

>  <ActivityOutcome_CPDBAS_Mutagenicity>
active

>  <ActivityScore_CPDBAS_Rat>
0

>  <TD50_Rat_Note>
no positive results

>  <TargetSites_Rat_Male>
no positive results

>  <TargetSites_Rat_Female>
no positive results

>  <ActivityOutcome_CPDBAS_Rat>
inactive

>  <TD50_Mouse_mg>
61.5

>  <TD50_Mouse_mmol>
0.486

>  <ActivityScore_CPDBAS_Mouse>
32

>  <TD50_Mouse_Note>
TD50 is harmonic mean of more than one positive test

>  <TargetSites_Mouse_Male>
stomach

>  <TargetSites_Mouse_Female>
stomach

>  <ActivityOutcome_CPDBAS_Mouse>
active

>  <ActivityOutcome_CPDBAS_SingleCellCall>
active

>  <ActivityOutcome_CPDBAS_MultiCellCall>
active

>  <ActivityOutcome_CPDBAS_MultiCellCall_Details>
multisex active

>  <ChemicalPage_URL>
http://potency.berkeley.edu/chempages/BENZYL%20CHLORIDE.html

$$$$



 15 16  0  0  0  0  0  0  0  0999 V2000
    0.0000   -3.9892    0.0000 O   0  0  0  0  0  0  0  0  0  0  0  0
    1.1502   -4.6541    0.0000 C   0  0  0  0  0  0  0  0  0  0  0  0
    2.3004   -3.9892    0.0000 C   0  0  0  0  0  0  0  0  0  0  0  0
    3.4573   -4.6541    0.0000 C   0  0  0  0  0  0  0  0  0  0  0  0
    3.4573   -5.9838    0.0000 C   0  0  0  0  0  0  0  0  0  0  0  0
    2.3004   -6.6487    0.0000 C   0  0  0  0  0  0  0  0  0  0  0  0
    1.1502   -5.9838    0.0000 C   0  0  0  0  0  0  0  0  0  0  0  0
    4.6075   -6.6487    0.0000 Cl  0  0  0  0  0  0  0  0  0  0  0  0
    2.3004   -2.6595    0.0000 C   0  0  0  0  0  0  0  0  0  0  0  0
    3.4573   -1.9946    0.0000 C   0  0  0  0  0  0  0  0  0  0  0  0
    3.4573   -0.6649    0.0000 C   0  0  0  0  0  0  0  0  0  0  0  0
    4.6075    0.0000    0.0000 C   0  0  0  0  0  0  0  0  0  0  0  0
    5.7577   -0.6649    0.0000 C   0  0  0  0  0  0  0  0  0  0  0  0
    5.7577   -1.9946    0.0000 C   0  0  0  0  0  0  0  0  0  0  0  0
    4.6075   -2.6595    0.0000 C   0  0  0  0  0  0  0  0  0  0  0  0
  1  2  1  0  0  0  0
  2  3  2  0  0  0  0
  2  7  1  0  0  0  0
  3  4  1  0  0  0  0
  3  9  1  0  0  0  0
  4  5  2  0  0  0  0
  5  6  1  0  0  0  0
  5  8  1  0  0  0  0
  6  7  2  0  0  0  0
  9 10  1  0  0  0  0
 10 11  2  0  0  0  0
 10 15  1  0  0  0  0
 11 12  1  0  0  0  0
 12 13  2  0  0  0  0
 13 14  1  0  0  0  0
 14 15  2  0  0  0  0
M  END
>  <DSSTox_RID>
20154

>  <DSSTox_CID>
154

>  <DSSTox_Generic_SID>
20154

>  <DSSTox_FileID>
157_CPDBAS_v5d

>  <STRUCTURE_Formula>
C13H11ClO

>  <STRUCTURE_MolecularWeight>
218.6788

>  <STRUCTURE_ChemicalType>
defined organic

>  <STRUCTURE_TestedForm_DefinedOrganic>
parent

>  <STRUCTURE_Shown>
tested chemical

>  <TestSubstance_ChemicalName>
o-Benzyl-p-chlorophenol

>  <TestSubstance_CASRN>
120-32-1

>  <TestSubstance_Description>
single chemical compound

>  <STRUCTURE_ChemicalName_IUPAC>
2-benzyl-4-chlorophenol

>  <STRUCTURE_SMILES>
OC1=C(C=C(C=C1)Cl)CC2=CC=CC=C2

>  <STRUCTURE_Parent_SMILES>
OC1=C(C=C(C=C1)Cl)CC2=CC=CC=C2

>  <STRUCTURE_InChI>
InChI=1/C13H11ClO/c14-12-6-7-13(15)11(9-12)8-10-4-2-1-3-5-10/h1-7,9,15H,8H2

>  <STRUCTURE_InChIKey>
NCKMMSIFQUPKCK-UHFFFAOYAC

>  <StudyType>
Carcinogenicity

>  <Endpoint>
TD50; Tumor Target Sites

>  <Species>
rat; mouse

>  <ActivityOutcome_CPDBAS_Mutagenicity>
inactive

>  <ActivityScore_CPDBAS_Rat>
0

>  <TD50_Rat_Note>
no positive results

>  <TargetSites_Rat_Male>
no positive results

>  <TargetSites_Rat_Female>
no positive results

>  <ActivityOutcome_CPDBAS_Rat>
inactive

>  <TD50_Mouse_mg>
1350

>  <TD50_Mouse_mmol>
6.17

>  <ActivityScore_CPDBAS_Mouse>
19

>  <TargetSites_Mouse_Male>
kidney

>  <TargetSites_Mouse_Female>
no positive results

>  <ActivityOutcome_CPDBAS_Mouse>
active

>  <ActivityOutcome_CPDBAS_SingleCellCall>
active

>  <NTP_TechnicalReport>
TR 444

>  <ChemicalPage_URL>
http://potency.berkeley.edu/chempages/o-BENZYL-p-CHLOROPHENOL.html

$$$$



 10 10  0  0  0  0  0  0  0  0999 V2000
    7.3155   -2.3044    0.0000 S   0  0  0  0  0  0  0  0  0  0  0  0
    5.9841   -2.3044    0.0000 C   0  0  0  0  0  0  0  0  0  0  0  0
    4.6526   -2.3044    0.0000 N   0  0  0  0  0  0  0  0  0  0  0  0
    3.9869   -1.1558    0.0000 C   0  0  0  0  0  0  0  0  0  0  0  0
    2.6628   -1.1558    0.0000 C   0  0  0  0  0  0  0  0  0  0  0  0
    1.9971   -2.3044    0.0000 C   0  0  0  0  0  0  0  0  0  0  0  0
    0.6657   -2.3044    0.0000 C   0  0  0  0  0  0  0  0  0  0  0  0
    0.0000   -1.1558    0.0000 C   0  0  0  0  0  0  0  0  0  0  0  0
    0.6657    0.0000    0.0000 C   0  0  0  0  0  0  0  0  0  0  0  0
    1.9971    0.0000    0.0000 C   0  0  0  0  0  0  0  0  0  0  0  0
  1  2  2  0  0  0  0
  2  3  2  0  0  0  0
  3  4  1  0  0  0  0
  4  5  1  0  0  0  0
  5  6  2  0  0  0  0
  5 10  1  0  0  0  0
  6  7  1  0  0  0  0
  7  8  2  0  0  0  0
  8  9  1  0  0  0  0
  9 10  2  0  0  0  0
M  END
>  <DSSTox_RID>
20155

>  <DSSTox_CID>
155

>  <DSSTox_Generic_SID>
20155

>  <DSSTox_FileID>
158_CPDBAS_v5d

>  <STRUCTURE_Formula>
C8H7NS

>  <STRUCTURE_MolecularWeight>
149.21

>  <STRUCTURE_ChemicalType>
defined organic

>  <STRUCTURE_TestedForm_DefinedOrganic>
parent

>  <STRUCTURE_Shown>
tested chemical

>  <TestSubstance_ChemicalName>
Benzyl isothiocyanate

>  <TestSubstance_CASRN>
622-78-6

>  <TestSubstance_Description>
single chemical compound

>  <STRUCTURE_ChemicalName_IUPAC>
(isothiocyanatomethyl)benzene

>  <STRUCTURE_SMILES>
S=C=NCC1=CC=CC=C1

>  <STRUCTURE_Parent_SMILES>
S=C=NCC1=CC=CC=C1

>  <STRUCTURE_InChI>
InChI=1/C8H7NS/c10-7-9-6-8-4-2-1-3-5-8/h1-5H,6H2

>  <STRUCTURE_InChIKey>
MDKCFLQDBWCQCV-UHFFFAOYAP

>  <StudyType>
Carcinogenicity

>  <Endpoint>
TD50; Tumor Target Sites

>  <Species>
rat

>  <ActivityScore_CPDBAS_Rat>
0

>  <TD50_Rat_Note>
no positive results

>  <TargetSites_Rat_Male>
no positive results

>  <ActivityOutcome_CPDBAS_Rat>
inactive

>  <ActivityOutcome_CPDBAS_SingleCellCall>
inactive

>  <ChemicalPage_URL>
http://potency.berkeley.edu/chempages/BENZYL%20ISOTHIOCYANATE.html

$$$$



 10 10  0  0  0  0  0  0  0  0999 V2000
    5.3173   -2.3077    0.0000 N   0  0  0  0  0  0  0  0  0  0  0  0
    4.6527   -1.1539    0.0000 C   0  0  0  0  0  0  0  0  0  0  0  0
    3.9880    0.0000    0.0000 S   0  0  0  0  0  0  0  0  0  0  0  0
    2.6587    0.0000    0.0000 C   0  0  0  0  0  0  0  0  0  0  0  0
    1.9940   -1.1539    0.0000 C   0  0  0  0  0  0  0  0  0  0  0  0
    2.6587   -2.3077    0.0000 C   0  0  0  0  0  0  0  0  0  0  0  0
    1.9940   -3.4563    0.0000 C   0  0  0  0  0  0  0  0  0  0  0  0
    0.6647   -3.4563    0.0000 C   0  0  0  0  0  0  0  0  0  0  0  0
    0.0000   -2.3077    0.0000 C   0  0  0  0  0  0  0  0  0  0  0  0
    0.6647   -1.1539    0.0000 C   0  0  0  0  0  0  0  0  0  0  0  0
  1  2  3  0  0  0  0
  2  3  1  0  0  0  0
  3  4  1  0  0  0  0
  4  5  1  0  0  0  0
  5  6  2  0  0  0  0
  5 10  1  0  0  0  0
  6  7  1  0  0  0  0
  7  8  2  0  0  0  0
  8  9  1  0  0  0  0
  9 10  2  0  0  0  0
M  END
>  <DSSTox_RID>
20156

>  <DSSTox_CID>
156

>  <DSSTox_Generic_SID>
20156

>  <DSSTox_FileID>
159_CPDBAS_v5d

>  <STRUCTURE_Formula>
C8H7NS

>  <STRUCTURE_MolecularWeight>
149.21

>  <STRUCTURE_ChemicalType>
defined organic

>  <STRUCTURE_TestedForm_DefinedOrganic>
parent

>  <STRUCTURE_Shown>
tested chemical

>  <TestSubstance_ChemicalName>
Benzyl thiocyanate

>  <TestSubstance_CASRN>
3012-37-1

>  <TestSubstance_Description>
single chemical compound

>  <STRUCTURE_ChemicalName_IUPAC>
phenylmethyl thiocyanate

>  <STRUCTURE_SMILES>
N#CSCC1=CC=CC=C1

>  <STRUCTURE_Parent_SMILES>
N#CSCC1=CC=CC=C1

>  <STRUCTURE_InChI>
InChI=1/C8H7NS/c9-7-10-6-8-4-2-1-3-5-8/h1-5H,6H2

>  <STRUCTURE_InChIKey>
ABNDFSOIUFLJAH-UHFFFAOYAN

>  <StudyType>
Carcinogenicity

>  <Endpoint>
TD50; Tumor Target Sites

>  <Species>
rat

>  <ActivityScore_CPDBAS_Rat>
0

>  <TD50_Rat_Note>
no positive results

>  <TargetSites_Rat_Male>
no positive results

>  <ActivityOutcome_CPDBAS_Rat>
inactive

>  <ActivityOutcome_CPDBAS_SingleCellCall>
inactive

>  <ChemicalPage_URL>
http://potency.berkeley.edu/chempages/BENZYL%20THIOCYANATE.html

$$$$



 17 18  0  0  0  0  0  0  0  0999 V2000
    0.1196   -7.4749    0.0000 O   0  5  0  0  0  0  0  0  0  0  0  0
    1.9659   -5.9800    0.0000 C   0  0  0  0  0  0  0  0  0  0  0  0
    0.6578   -6.2565    0.0000 C   0  0  0  0  0  0  0  0  0  0  0  0
    2.1079   -4.6569    0.0000 N   0  3  0  0  0  0  0  0  0  0  0  0
    0.0000   -5.1054    0.0000 O   0  0  0  0  0  0  0  0  0  0  0  0
    0.8895   -4.1187    0.0000 N   0  0  0  0  0  0  0  0  0  0  0  0
    4.3953   -0.6578    0.0000 C   0  0  0  0  0  0  0  0  0  0  0  0
    4.3953   -1.9958    0.0000 C   0  0  0  0  0  0  0  0  0  0  0  0
    3.2591    0.0000    0.0000 C   0  0  0  0  0  0  0  0  0  0  0  0
    3.2591   -2.6611    0.0000 C   0  0  0  0  0  0  0  0  0  0  0  0
    2.1079   -0.6578    0.0000 C   0  0  0  0  0  0  0  0  0  0  0  0
    2.1079   -1.9958    0.0000 C   0  0  0  0  0  0  0  0  0  0  0  0
    3.2591   -3.9991    0.0000 C   0  0  0  0  0  0  0  0  0  0  0  0
    2.9526   -6.8770    0.0000 C   0  0  0  0  0  0  0  0  0  0  0  0
    4.2159   -6.4584    0.0000 C   0  0  0  0  0  0  0  0  0  0  0  0
    5.1951   -7.3553    0.0000 O   0  0  0  0  0  0  0  0  0  0  0  0
    4.4924   -5.1502    0.0000 N   0  0  0  0  0  0  0  0  0  0  0  0
  1  3  1  0  0  0  0
  2  3  2  0  0  0  0
  2  4  1  0  0  0  0
  2 14  1  0  0  0  0
  3  5  1  0  0  0  0
  4  6  2  0  0  0  0
  4 13  1  0  0  0  0
  5  6  1  0  0  0  0
  7  8  1  0  0  0  0
  7  9  2  0  0  0  0
  8 10  2  0  0  0  0
  9 11  1  0  0  0  0
 10 12  1  0  0  0  0
 10 13  1  0  0  0  0
 11 12  2  0  0  0  0
 14 15  1  0  0  0  0
 15 16  2  0  0  0  0
 15 17  1  0  0  0  0
M  END
>  <DSSTox_RID>
20158

>  <DSSTox_CID>
158

>  <DSSTox_Generic_SID>
20158

>  <DSSTox_FileID>
161_CPDBAS_v5d

>  <STRUCTURE_Formula>
C11H11N3O3

>  <STRUCTURE_MolecularWeight>
233.2233

>  <STRUCTURE_ChemicalType>
defined organic

>  <STRUCTURE_TestedForm_DefinedOrganic>
parent

>  <STRUCTURE_Shown>
tested chemical

>  <TestSubstance_ChemicalName>
3-Benzylsydnone-4-acetamide

>  <TestSubstance_CASRN>
14504-15-5

>  <TestSubstance_Description>
single chemical compound

>  <ChemicalNote>
zwitterion

>  <STRUCTURE_ChemicalName_IUPAC>
4-(2-amino-2-oxoethyl)-3-(phenylmethyl)-1,2,3-oxadiazol-3-ium-5-olate

>  <STRUCTURE_SMILES>
NC(=O)Cc2c([O-])on[n+]2Cc1ccccc1

>  <STRUCTURE_Parent_SMILES>
NC(=O)Cc2c([O-])on[n+]2Cc1ccccc1

>  <STRUCTURE_InChI>
InChI=1/C11H11N3O3/c12-10(15)6-9-11(16)17-13-14(9)7-8-4-2-1-3-5-8/h1-5H,6-7H2,(H2-,12,13,15,16)/f/h12H2

>  <STRUCTURE_InChIKey>
GPEINOHASDVYFS-GAJRPKRDCQ

>  <StudyType>
Carcinogenicity

>  <Endpoint>
TD50; Tumor Target Sites

>  <Species>
rat; mouse

>  <TD50_Rat_mg>
4.24

>  <TD50_Rat_mmol>
0.0182

>  <ActivityScore_CPDBAS_Rat>
44

>  <TargetSites_Rat_Male>
liver

>  <ActivityOutcome_CPDBAS_Rat>
active

>  <TD50_Mouse_mg>
10.2

>  <TD50_Mouse_mmol>
0.0437

>  <ActivityScore_CPDBAS_Mouse>
44

>  <TargetSites_Mouse_Female>
liver

>  <ActivityOutcome_CPDBAS_Mouse>
active

>  <ActivityOutcome_CPDBAS_SingleCellCall>
active

>  <ActivityOutcome_CPDBAS_MultiCellCall>
active

>  <ActivityOutcome_CPDBAS_MultiCellCall_Details>
multisex active; multispecies active

>  <Note_CPDBAS>
Rat added v2a; Mouse added v2a; Mouse modified v3a; TD50_Rat modified v5a

>  <ChemicalPage_URL>
http://potency.berkeley.edu/chempages/3-BENZYLSYDNONE-4-ACETAMIDE.html

$$$$



 29 31  0  0  0  0  0  0  0  0999 V2000
    5.3331   -1.0370    0.0000 C   0  0  0  0  0  0  0  0  0  0  0  0
    4.6253   -2.2057    0.0000 C   0  0  3  0  0  0  0  0  0  0  0  0
    5.9915   -2.2057    0.0000 C   0  0  3  0  0  0  0  0  0  0  0  0
    3.5060   -2.8641    0.0000 C   0  0  0  0  0  0  0  0  0  0  0  0
    1.1687   -2.8312    0.0000 C   0  0  0  0  0  0  0  0  0  0  0  0
    2.3374   -2.2057    0.0000 C   0  0  0  0  0  0  0  0  0  0  0  0
    7.1767   -2.8805    0.0000 C   0  0  0  0  0  0  0  0  0  0  0  0
   11.8020   -2.8641    0.0000 C   0  0  0  0  0  0  0  0  0  0  0  0
   12.9542   -2.1892    0.0000 C   0  0  0  0  0  0  0  0  0  0  0  0
    8.3124   -2.2221    0.0000 O   0  0  0  0  0  0  0  0  0  0  0  0
   10.6333   -2.2221    0.0000 C   0  0  0  0  0  0  0  0  0  0  0  0
    7.1767   -4.2138    0.0000 O   0  0  0  0  0  0  0  0  0  0  0  0
   14.1229   -2.8476    0.0000 C   0  0  0  0  0  0  0  0  0  0  0  0
    9.4811   -2.8805    0.0000 C   0  0  0  0  0  0  0  0  0  0  0  0
    0.0000   -3.4731    0.0000 F   0  0  0  0  0  0  0  0  0  0  0  0
    0.5267   -1.6625    0.0000 F   0  0  0  0  0  0  0  0  0  0  0  0
    1.8106   -3.9998    0.0000 F   0  0  0  0  0  0  0  0  0  0  0  0
    4.7735    0.0000    0.0000 C   0  0  0  0  0  0  0  0  0  0  0  0
    5.9586    0.0000    0.0000 C   0  0  0  0  0  0  0  0  0  0  0  0
    2.3374   -0.8559    0.0000 Cl  0  0  0  0  0  0  0  0  0  0  0  0
   12.9542   -0.8395    0.0000 C   0  0  0  0  0  0  0  0  0  0  0  0
   11.8184   -4.1974    0.0000 C   0  0  0  0  0  0  0  0  0  0  0  0
   11.7855   -0.1811    0.0000 C   0  0  0  0  0  0  0  0  0  0  0  0
   10.6333   -0.8724    0.0000 C   0  0  0  0  0  0  0  0  0  0  0  0
   14.1393   -4.1809    0.0000 C   0  0  0  0  0  0  0  0  0  0  0  0
   15.2751   -2.1563    0.0000 C   0  0  0  0  0  0  0  0  0  0  0  0
   16.4438   -2.8147    0.0000 C   0  0  0  0  0  0  0  0  0  0  0  0
   15.3080   -4.8393    0.0000 C   0  0  0  0  0  0  0  0  0  0  0  0
   16.4602   -4.1644    0.0000 C   0  0  0  0  0  0  0  0  0  0  0  0
  1  2  1  0  0  0  0
  1  3  1  0  0  0  0
  1 18  1  0  0  0  0
  1 19  1  0  0  0  0
  2  4  1  0  0  0  0
  2  3  1  0  0  0  0
  3  7  1  0  0  0  0
  4  6  2  0  0  0  0
  5  6  1  0  0  0  0
  5 15  1  0  0  0  0
  5 16  1  0  0  0  0
  5 17  1  0  0  0  0
  6 20  1  0  0  0  0
  7 10  1  0  0  0  0
  7 12  2  0  0  0  0
  8 11  1  0  0  0  0
  8  9  2  0  0  0  0
  8 22  1  0  0  0  0
  9 13  1  0  0  0  0
  9 21  1  0  0  0  0
 10 14  1  0  0  0  0
 11 14  1  0  0  0  0
 11 24  2  0  0  0  0
 13 25  2  0  0  0  0
 13 26  1  0  0  0  0
 21 23  2  0  0  0  0
 23 24  1  0  0  0  0
 25 28  1  0  0  0  0
 26 27  2  0  0  0  0
 27 29  1  0  0  0  0
 28 29  2  0  0  0  0
M  END
>  <DSSTox_RID>
20160

>  <DSSTox_CID>
160

>  <DSSTox_Generic_SID>
20160

>  <DSSTox_FileID>
163_CPDBAS_v5d

>  <STRUCTURE_Formula>
C23H22ClF3O2

>  <STRUCTURE_MolecularWeight>
422.8678

>  <STRUCTURE_ChemicalType>
defined organic

>  <STRUCTURE_TestedForm_DefinedOrganic>
parent

>  <STRUCTURE_Shown>
tested chemical

>  <TestSubstance_ChemicalName>
Bifenthrin

>  <TestSubstance_CASRN>
82657-04-3

>  <TestSubstance_Description>
single chemical compound

>  <ChemicalNote>
mixture of 1(R,S) stereoisomers, = 97% Z isomer, stereochem

>  <STRUCTURE_ChemicalName_IUPAC>
(2-methylbiphenyl-3-yl)methyl 3-[(1Z)-2-chloro-3,3,3-trifluoroprop-1-en-1-yl]-2,2-dimethylcyclopropanecarboxylate

>  <STRUCTURE_SMILES>
O=C(OCC2=CC=CC(C3=CC=CC=C3)=C2C)C1C(C)(C)C1/C=C(Cl)/C(F)(F)F

>  <STRUCTURE_Parent_SMILES>
O=C(OCC2=CC=CC(C3=CC=CC=C3)=C2C)C1C(C)(C)C1/C=C(Cl)/C(F)(F)F

>  <STRUCTURE_InChI>
InChI=1/C23H22ClF3O2/c1-14-16(10-7-11-17(14)15-8-5-4-6-9-15)13-29-21(28)20-18(22(20,2)3)12-19(24)23(25,26)27/h4-12,18,20H,13H2,1-3H3/b19-12-

>  <STRUCTURE_InChIKey>
OMFRMAHOUUJSGP-UNOMPAQXBK

>  <StudyType>
Carcinogenicity

>  <Endpoint>
TD50; Tumor Target Sites

>  <Species>
mouse

>  <ActivityScore_CPDBAS_Mouse>
0

>  <TD50_Mouse_Note>
no positive results

>  <TargetSites_Mouse_Male>
no positive results

>  <TargetSites_Mouse_Female>
no positive results

>  <ActivityOutcome_CPDBAS_Mouse>
inactive

>  <ActivityOutcome_CPDBAS_SingleCellCall>
inactive

>  <ActivityOutcome_CPDBAS_MultiCellCall>
inactive

>  <ActivityOutcome_CPDBAS_MultiCellCall_Details>
multisex inactive

>  <Note_CPDBAS>
Mouse added v3a; chemical added v3a

>  <ChemicalPage_URL>
http://potency.berkeley.edu/chempages/BIFENTHRIN.html

$$$$



 12 13  0  0  0  0  0  0  0  0999 V2000
    1.9961    0.0000    0.0000 C   0  0  0  0  0  0  0  0  0  0  0  0
    2.6615   -1.1511    0.0000 C   0  0  0  0  0  0  0  0  0  0  0  0
    1.9961   -2.3022    0.0000 C   0  0  0  0  0  0  0  0  0  0  0  0
    0.6654   -2.3022    0.0000 C   0  0  0  0  0  0  0  0  0  0  0  0
    0.0000   -1.1511    0.0000 C   0  0  0  0  0  0  0  0  0  0  0  0
    0.6654    0.0000    0.0000 C   0  0  0  0  0  0  0  0  0  0  0  0
    3.9922   -1.1511    0.0000 C   0  0  0  0  0  0  0  0  0  0  0  0
    4.6575    0.0000    0.0000 C   0  0  0  0  0  0  0  0  0  0  0  0
    5.9883    0.0000    0.0000 C   0  0  0  0  0  0  0  0  0  0  0  0
    6.6536   -1.1511    0.0000 C   0  0  0  0  0  0  0  0  0  0  0  0
    5.9883   -2.3022    0.0000 C   0  0  0  0  0  0  0  0  0  0  0  0
    4.6575   -2.3022    0.0000 C   0  0  0  0  0  0  0  0  0  0  0  0
  1  2  2  0  0  0  0
  1  6  1  0  0  0  0
  2  3  1  0  0  0  0
  2  7  1  0  0  0  0
  3  4  2  0  0  0  0
  4  5  1  0  0  0  0
  5  6  2  0  0  0  0
  7  8  2  0  0  0  0
  7 12  1  0  0  0  0
  8  9  1  0  0  0  0
  9 10  2  0  0  0  0
 10 11  1  0  0  0  0
 11 12  2  0  0  0  0
M  END
>  <DSSTox_RID>
20161

>  <DSSTox_CID>
161

>  <DSSTox_Generic_SID>
20161

>  <DSSTox_FileID>
164_CPDBAS_v5d

>  <STRUCTURE_Formula>
C12H10

>  <STRUCTURE_MolecularWeight>
154.2078

>  <STRUCTURE_ChemicalType>
defined organic

>  <STRUCTURE_TestedForm_DefinedOrganic>
parent

>  <STRUCTURE_Shown>
tested chemical

>  <TestSubstance_ChemicalName>
Biphenyl

>  <TestSubstance_CASRN>
92-52-4

>  <TestSubstance_Description>
single chemical compound

>  <STRUCTURE_ChemicalName_IUPAC>
biphenyl

>  <STRUCTURE_SMILES>
C1=C(C=CC=C1)C2=CC=CC=C2

>  <STRUCTURE_Parent_SMILES>
C1=C(C=CC=C1)C2=CC=CC=C2

>  <STRUCTURE_InChI>
InChI=1/C12H10/c1-3-7-11(8-4-1)12-9-5-2-6-10-12/h1-10H

>  <STRUCTURE_InChIKey>
ZUOUZKKEUPVFJK-UHFFFAOYAV

>  <StudyType>
Carcinogenicity

>  <Endpoint>
TD50; Tumor Target Sites

>  <Species>
mouse

>  <ActivityOutcome_CPDBAS_Mutagenicity>
inactive

>  <ActivityScore_CPDBAS_Mouse>
0

>  <TD50_Mouse_Note>
no positive results

>  <TargetSites_Mouse_Male>
no positive results

>  <TargetSites_Mouse_Female>
no positive results

>  <ActivityOutcome_CPDBAS_Mouse>
inactive

>  <ActivityOutcome_CPDBAS_SingleCellCall>
inactive

>  <ActivityOutcome_CPDBAS_MultiCellCall>
inactive

>  <ActivityOutcome_CPDBAS_MultiCellCall_Details>
multisex inactive

>  <ChemicalPage_URL>
http://potency.berkeley.edu/chempages/BIPHENYL.html

$$$$



 32 33  0  0  0  0  0  0  0  0999 V2000
    0.0000   -5.4934    0.0000 O   0  0  0  0  0  0  0  0  0  0  0  0
    1.3333   -5.4934    0.0000 C   0  0  0  0  0  0  0  0  0  0  0  0
    1.9911   -4.3378    0.0000 O   0  0  0  0  0  0  0  0  0  0  0  0
    6.5778   -6.6489    0.0000 O   0  0  0  0  0  0  0  0  0  0  0  0
   14.6312   -4.6400    0.0000 C   0  0  0  0  0  0  0  0  0  0  0  0
   10.0445   -0.6578    0.0000 C   0  0  0  0  0  0  0  0  0  0  0  0
   10.0445   -1.9911    0.0000 C   0  0  0  0  0  0  0  0  0  0  0  0
    8.8890    0.0000    0.0000 C   0  0  0  0  0  0  0  0  0  0  0  0
    8.8890   -2.6667    0.0000 C   0  0  0  0  0  0  0  0  0  0  0  0
    7.7334   -0.6578    0.0000 C   0  0  0  0  0  0  0  0  0  0  0  0
    7.7334   -1.9911    0.0000 C   0  0  0  0  0  0  0  0  0  0  0  0
   10.0445   -4.6400    0.0000 C   0  0  0  0  0  0  0  0  0  0  0  0
   10.0445   -5.9734    0.0000 C   0  0  0  0  0  0  0  0  0  0  0  0
    8.8890   -3.9823    0.0000 C   0  0  0  0  0  0  0  0  0  0  0  0
    8.8890   -6.6489    0.0000 C   0  0  0  0  0  0  0  0  0  0  0  0
    7.7334   -4.6400    0.0000 C   0  0  0  0  0  0  0  0  0  0  0  0
    7.7334   -5.9734    0.0000 C   0  0  0  0  0  0  0  0  0  0  0  0
   11.2001   -3.9823    0.0000 O   0  0  0  0  0  0  0  0  0  0  0  0
   12.3379   -4.6400    0.0000 C   0  0  0  0  0  0  0  0  0  0  0  0
   13.4934   -3.9823    0.0000 C   0  0  0  0  0  0  0  0  0  0  0  0
   15.7868   -3.9823    0.0000 C   0  0  0  0  0  0  0  0  0  0  0  0
   15.1290   -2.8267    0.0000 C   0  0  0  0  0  0  0  0  0  0  0  0
   16.9424   -3.3245    0.0000 C   0  0  0  0  0  0  0  0  0  0  0  0
   16.4446   -5.1378    0.0000 C   0  0  0  0  0  0  0  0  0  0  0  0
   17.7779   -5.1378    0.0000 O   0  0  0  0  0  0  0  0  0  0  0  0
   15.7868   -6.2934    0.0000 O   0  0  0  0  0  0  0  0  0  0  0  0
    5.4400   -5.9734    0.0000 C   0  0  0  0  0  0  0  0  0  0  0  0
    4.2845   -6.6489    0.0000 C   0  0  0  0  0  0  0  0  0  0  0  0
    3.1467   -5.9734    0.0000 C   0  0  0  0  0  0  0  0  0  0  0  0
    1.9911   -6.6489    0.0000 C   0  0  0  0  0  0  0  0  0  0  0  0
    2.6489   -7.7867    0.0000 C   0  0  0  0  0  0  0  0  0  0  0  0
    0.8356   -7.3067    0.0000 C   0  0  0  0  0  0  0  0  0  0  0  0
  1  2  1  0  0  0  0
  2  3  2  0  0  0  0
  2 30  1  0  0  0  0
  4 17  1  0  0  0  0
  4 27  1  0  0  0  0
  5 20  1  0  0  0  0
  5 21  1  0  0  0  0
  6  7  1  0  0  0  0
  6  8  2  0  0  0  0
  7  9  2  0  0  0  0
  8 10  1  0  0  0  0
  9 11  1  0  0  0  0
  9 14  1  0  0  0  0
 10 11  2  0  0  0  0
 12 13  1  0  0  0  0
 12 14  2  0  0  0  0
 12 18  1  0  0  0  0
 13 15  2  0  0  0  0
 14 16  1  0  0  0  0
 15 17  1  0  0  0  0
 16 17  2  0  0  0  0
 18 19  1  0  0  0  0
 19 20  1  0  0  0  0
 21 22  1  0  0  0  0
 21 23  1  0  0  0  0
 21 24  1  0  0  0  0
 24 25  2  0  0  0  0
 24 26  1  0  0  0  0
 27 28  1  0  0  0  0
 28 29  1  0  0  0  0
 29 30  1  0  0  0  0
 30 31  1  0  0  0  0
 30 32  1  0  0  0  0
M  END
>  <DSSTox_RID>
20162

>  <DSSTox_CID>
162

>  <DSSTox_Generic_SID>
20162

>  <DSSTox_FileID>
165_CPDBAS_v5d

>  <STRUCTURE_Formula>
C26H34O6

>  <STRUCTURE_MolecularWeight>
442.5446

>  <STRUCTURE_ChemicalType>
defined organic

>  <STRUCTURE_TestedForm_DefinedOrganic>
parent

>  <STRUCTURE_Shown>
tested chemical

>  <TestSubstance_ChemicalName>
5,5'-(1,1'-Biphenyl)-2,5-dylbis(oxy)(2,2-dimethylpentanoic acid)

>  <TestSubstance_CASRN>
79520-77-7

>  <TestSubstance_Description>
single chemical compound

>  <STRUCTURE_ChemicalName_IUPAC>
5,5'-[biphenyl-2,5-diylbis(oxy)]bis(2,2-dimethylpentanoic acid)

>  <STRUCTURE_SMILES>
OC(=O)C(C)(C)CCCOc1ccc(OCCCC(C)(C)C(O)=O)c(c1)c2ccccc2

>  <STRUCTURE_Parent_SMILES>
OC(=O)C(C)(C)CCCOc1ccc(OCCCC(C)(C)C(O)=O)c(c1)c2ccccc2

>  <STRUCTURE_InChI>
InChI=1/C26H34O6/c1-25(2,23(27)28)14-8-16-31-20-12-13-22(21(18-20)19-10-6-5-7-11-19)32-17-9-15-26(3,4)24(29)30/h5-7,10-13,18H,8-9,14-17H2,1-4H3,(H,27,28)(H,29,30)/f/h27,29H

>  <STRUCTURE_InChIKey>
RPGQBVHHFQUGBU-CATZCVBWCH

>  <StudyType>
Carcinogenicity

>  <Endpoint>
TD50; Tumor Target Sites

>  <Species>
mouse

>  <TD50_Mouse_mg>
55.5

>  <TD50_Mouse_mmol>
0.125

>  <ActivityScore_CPDBAS_Mouse>
38

>  <TD50_Mouse_Note>
TD50 is harmonic mean of more than one positive test

>  <TargetSites_Mouse_Male>
liver

>  <TargetSites_Mouse_Female>
liver

>  <ActivityOutcome_CPDBAS_Mouse>
active

>  <ActivityOutcome_CPDBAS_SingleCellCall>
active

>  <ActivityOutcome_CPDBAS_MultiCellCall>
active

>  <ActivityOutcome_CPDBAS_MultiCellCall_Details>
multisex active

>  <Note_CPDBAS>
Mouse added v2a; TD50_Mouse modified v3a

>  <ChemicalPage_URL>
http://potency.berkeley.edu/chempages/5,5'-(1,1'-BIPHENYL)-2,5-DIYLBIS(OXY)(2,2-DIMETHYL.html

$$$$



  9  8  0  0  0  0  0  0  0  0999 V2000
    3.1476   -3.9893    0.0000 O   0  0  0  0  0  0  0  0  0  0  0  0
    1.9947   -3.3231    0.0000 C   0  0  0  0  0  0  0  0  0  0  0  0
    1.9947   -1.9947    0.0000 C   0  0  0  0  0  0  0  0  0  0  0  0
    0.6662   -1.9947    0.0000 C   0  0  0  0  0  0  0  0  0  0  0  0
    0.0000   -3.1476    0.0000 O   0  0  0  0  0  0  0  0  0  0  0  0
    1.9947   -0.6662    0.0000 C   0  0  0  0  0  0  0  0  0  0  0  0
    0.8417    0.0000    0.0000 Br  0  0  0  0  0  0  0  0  0  0  0  0
    3.3231   -1.9947    0.0000 C   0  0  0  0  0  0  0  0  0  0  0  0
    3.9893   -3.1476    0.0000 Br  0  0  0  0  0  0  0  0  0  0  0  0
  1  2  1  0  0  0  0
  2  3  1  0  0  0  0
  3  4  1  0  0  0  0
  3  6  1  0  0  0  0
  3  8  1  0  0  0  0
  4  5  1  0  0  0  0
  6  7  1  0  0  0  0
  8  9  1  0  0  0  0
M  END
>  <DSSTox_RID>
20164

>  <DSSTox_CID>
164

>  <DSSTox_Generic_SID>
24610

>  <DSSTox_FileID>
167_CPDBAS_v5d

>  <STRUCTURE_Formula>
C5H10Br2O2

>  <STRUCTURE_MolecularWeight>
261.9408

>  <STRUCTURE_ChemicalType>
defined organic

>  <STRUCTURE_TestedForm_DefinedOrganic>
parent

>  <STRUCTURE_Shown>
tested chemical

>  <TestSubstance_ChemicalName>
2,2-Bis(bromomethyl)-1,3-propanediol, technical grade

>  <TestSubstance_CASRN>
3296-90-0

>  <TestSubstance_Description>
single chemical compound

>  <STRUCTURE_ChemicalName_IUPAC>
2,2-bis(bromomethyl)propane-1,3-diol

>  <STRUCTURE_SMILES>
OCC(CO)(CBr)CBr

>  <STRUCTURE_Parent_SMILES>
OCC(CO)(CBr)CBr

>  <STRUCTURE_InChI>
InChI=1/C5H10Br2O2/c6-1-5(2-7,3-8)4-9/h8-9H,1-4H2

>  <STRUCTURE_InChIKey>
CHUGKEQJSLOLHL-UHFFFAOYAT

>  <StudyType>
Carcinogenicity

>  <Endpoint>
TD50; Tumor Target Sites

>  <Species>
rat; mouse

>  <ActivityOutcome_CPDBAS_Mutagenicity>
active

>  <TD50_Rat_mg>
111

>  <TD50_Rat_mmol>
0.424

>  <ActivityScore_CPDBAS_Rat>
30

>  <TD50_Rat_Note>
TD50 is harmonic mean of more than one positive test

>  <TargetSites_Rat_Male>
esophagus; ear Zymbals gland; hematopoietic system; large intestine; lung; mammary gland; oral cavity; peritoneal cavity; skin; small intestine; stomach; subcutaneous tissue; testes; thyroid gland; urinary bladder

>  <TargetSites_Rat_Female>
esophagus; mammary gland; oral cavity; thyroid gland

>  <ActivityOutcome_CPDBAS_Rat>
active

>  <TD50_Mouse_mg>
137

>  <TD50_Mouse_mmol>
0.523

>  <ActivityScore_CPDBAS_Mouse>
31

>  <TD50_Mouse_Note>
TD50 is harmonic mean of more than one positive test

>  <TargetSites_Mouse_Male>
harderian gland; kidney; lung

>  <TargetSites_Mouse_Female>
harderian gland; lung; subcutaneous tissue

>  <ActivityOutcome_CPDBAS_Mouse>
active

>  <ActivityOutcome_CPDBAS_SingleCellCall>
active

>  <ActivityOutcome_CPDBAS_MultiCellCall>
active

>  <ActivityOutcome_CPDBAS_MultiCellCall_Details>
multisite active; multisex active; multispecies active

>  <Note_CPDBAS>
TargetSites_Mouse_Female modified v5a

>  <NTP_TechnicalReport>
TR 452

>  <ChemicalPage_URL>
http://potency.berkeley.edu/chempages/2,2-BIS(BROMOMETHYL)-1,3-PROPANEDIOL,%20TECHNICAL%20GR.html

$$$$



 21 21  0  0  0  0  0  0  0  0999 V2000
    4.4267   -2.1638    0.0000 C   0  0  0  0  0  0  0  0  0  0  0  0
    5.4425   -1.3131    0.0000 C   0  0  3  0  0  0  0  0  0  0  0  0
    6.6896   -1.7674    0.0000 C   0  0  0  0  0  0  0  0  0  0  0  0
    6.9208   -3.0722    0.0000 C   0  0  0  0  0  0  0  0  0  0  0  0
    5.9050   -3.9312    0.0000 C   0  0  0  0  0  0  0  0  0  0  0  0
    4.6579   -3.4769    0.0000 C   0  0  0  0  0  0  0  0  0  0  0  0
    4.4267   -4.7818    0.0000 O   0  0  0  0  0  0  0  0  0  0  0  0
    5.4425   -5.6407    0.0000 O   0  0  0  0  0  0  0  0  0  0  0  0
    5.2113   -6.9456    0.0000 C   0  0  0  0  0  0  0  0  0  0  0  0
    3.8981   -6.7144    0.0000 C   0  0  0  0  0  0  0  0  0  0  0  0
    4.9800   -8.2587    0.0000 C   0  0  0  0  0  0  0  0  0  0  0  0
    6.5244   -7.1768    0.0000 C   0  0  0  0  0  0  0  0  0  0  0  0
    3.3283   -3.4769    0.0000 O   0  0  0  0  0  0  0  0  0  0  0  0
    2.6593   -4.6249    0.0000 O   0  0  0  0  0  0  0  0  0  0  0  0
    1.3297   -4.6249    0.0000 C   0  0  0  0  0  0  0  0  0  0  0  0
    1.3297   -5.9545    0.0000 C   0  0  0  0  0  0  0  0  0  0  0  0
    0.0000   -4.6249    0.0000 C   0  0  0  0  0  0  0  0  0  0  0  0
    1.3297   -3.2952    0.0000 C   0  0  0  0  0  0  0  0  0  0  0  0
    8.1761   -2.6180    0.0000 C   0  0  0  0  0  0  0  0  0  0  0  0
    7.5898   -4.2285    0.0000 C   0  0  0  0  0  0  0  0  0  0  0  0
    5.2113    0.0000    0.0000 C   0  0  0  0  0  0  0  0  0  0  0  0
  1  2  1  0  0  0  0
  1  6  1  0  0  0  0
  2  3  1  0  0  0  0
  2 21  1  0  0  0  0
  3  4  1  0  0  0  0
  4  5  1  0  0  0  0
  4 19  1  0  0  0  0
  4 20  1  0  0  0  0
  5  6  1  0  0  0  0
  6  7  1  0  0  0  0
  6 13  1  0  0  0  0
  7  8  1  0  0  0  0
  8  9  1  0  0  0  0
  9 10  1  0  0  0  0
  9 11  1  0  0  0  0
  9 12  1  0  0  0  0
 13 14  1  0  0  0  0
 14 15  1  0  0  0  0
 15 16  1  0  0  0  0
 15 17  1  0  0  0  0
 15 18  1  0  0  0  0
M  END
>  <DSSTox_RID>
20165

>  <DSSTox_CID>
165

>  <DSSTox_Generic_SID>
20165

>  <DSSTox_FileID>
168_CPDBAS_v5d

>  <STRUCTURE_Formula>
C17H34O4

>  <STRUCTURE_MolecularWeight>
302.4532

>  <STRUCTURE_ChemicalType>
defined organic

>  <STRUCTURE_TestedForm_DefinedOrganic>
parent

>  <STRUCTURE_Shown>
tested chemical

>  <TestSubstance_ChemicalName>
1,1-Bis(tert-butylperoxy)-3,3,5-trimethylcyclohexane

>  <TestSubstance_CASRN>
6731-36-8

>  <TestSubstance_Description>
single chemical compound

>  <STRUCTURE_ChemicalName_IUPAC>
1,1-bis[(1,1-dimethylethyl)peroxy]-3,3,5-trimethylcyclohexane

>  <STRUCTURE_SMILES>
C1C(CC(CC1(OOC(C)(C)C)OOC(C)(C)C)(C)C)C

>  <STRUCTURE_Parent_SMILES>
C1C(CC(CC1(OOC(C)(C)C)OOC(C)(C)C)(C)C)C

>  <STRUCTURE_InChI>
InChI=1/C17H34O4/c1-13-10-16(8,9)12-17(11-13,20-18-14(2,3)4)21-19-15(5,6)7/h13H,10-12H2,1-9H3

>  <STRUCTURE_InChIKey>
NALFRYPTRXKZPN-UHFFFAOYAQ

>  <StudyType>
Carcinogenicity

>  <Endpoint>
TD50; Tumor Target Sites

>  <Species>
mouse

>  <ActivityScore_CPDBAS_Mouse>
0

>  <TD50_Mouse_Note>
no positive results

>  <TargetSites_Mouse_Male>
no positive results

>  <TargetSites_Mouse_Female>
no positive results

>  <ActivityOutcome_CPDBAS_Mouse>
inactive

>  <ActivityOutcome_CPDBAS_SingleCellCall>
inactive

>  <ActivityOutcome_CPDBAS_MultiCellCall>
inactive

>  <ActivityOutcome_CPDBAS_MultiCellCall_Details>
multisex inactive

>  <ChemicalPage_URL>
http://potency.berkeley.edu/chempages/1,1-BIS(tert-BUTYLPEROXY)-3,3,5-TRIMETHYLCYCLOHEXA.html

$$$$



  9  8  0  0  0  0  0  0  0  0999 V2000
    1.1538   -1.9967    0.0000 C   0  0  0  0  0  0  0  0  0  0  0  0
    2.3007   -1.3334    0.0000 C   0  0  3  0  0  0  0  0  0  0  0  0
    2.3007    0.0000    0.0000 C   0  0  0  0  0  0  0  0  0  0  0  0
    3.4545   -1.9967    0.0000 O   0  0  0  0  0  0  0  0  0  0  0  0
    5.7552   -1.9967    0.0000 C   0  0  0  0  0  0  0  0  0  0  0  0
    4.6083   -1.3334    0.0000 C   0  0  3  0  0  0  0  0  0  0  0  0
    4.6083    0.0000    0.0000 C   0  0  0  0  0  0  0  0  0  0  0  0
    6.9090   -1.3334    0.0000 Cl  0  0  0  0  0  0  0  0  0  0  0  0
    0.0000   -1.3334    0.0000 Cl  0  0  0  0  0  0  0  0  0  0  0  0
  1  2  1  0  0  0  0
  1  9  1  0  0  0  0
  2  3  1  0  0  0  0
  2  4  1  0  0  0  0
  4  6  1  0  0  0  0
  5  6  1  0  0  0  0
  5  8  1  0  0  0  0
  6  7  1  0  0  0  0
M  END
>  <DSSTox_RID>
20167

>  <DSSTox_CID>
167

>  <DSSTox_Generic_SID>
23918

>  <DSSTox_FileID>
170_CPDBAS_v5d

>  <STRUCTURE_Formula>
C6H12Cl2O

>  <STRUCTURE_MolecularWeight>
171.0662

>  <STRUCTURE_ChemicalType>
defined organic

>  <STRUCTURE_TestedForm_DefinedOrganic>
parent

>  <STRUCTURE_Shown>
tested chemical

>  <TestSubstance_ChemicalName>
Bis(2-chloro-1-methylethyl)ether, technical grade

>  <TestSubstance_CASRN>
108-60-1

>  <TestSubstance_Description>
single chemical compound

>  <STRUCTURE_ChemicalName_IUPAC>
2,2'-oxybis(1-chloropropane)

>  <STRUCTURE_SMILES>
CC(CCl)OC(C)CCl

>  <STRUCTURE_Parent_SMILES>
CC(CCl)OC(C)CCl

>  <STRUCTURE_InChI>
InChI=1/C6H12Cl2O/c1-5(3-7)9-6(2)4-8/h5-6H,3-4H2,1-2H3

>  <STRUCTURE_InChIKey>
QCFYJCYNJLBDRT-UHFFFAOYAG

>  <StudyType>
Carcinogenicity

>  <Endpoint>
TD50; Tumor Target Sites

>  <Species>
rat; mouse

>  <ActivityOutcome_CPDBAS_Mutagenicity>
active

>  <ActivityScore_CPDBAS_Rat>
0

>  <TD50_Rat_Note>
no positive results

>  <TargetSites_Rat_Male>
no positive results

>  <TargetSites_Rat_Female>
no positive results

>  <ActivityOutcome_CPDBAS_Rat>
inactive

>  <TD50_Mouse_mg>
191

>  <TD50_Mouse_mmol>
1.12

>  <ActivityScore_CPDBAS_Mouse>
28

>  <TD50_Mouse_Note>
TD50 is harmonic mean of more than one positive test

>  <TargetSites_Mouse_Male>
liver; lung

>  <TargetSites_Mouse_Female>
lung

>  <ActivityOutcome_CPDBAS_Mouse>
active

>  <ActivityOutcome_CPDBAS_SingleCellCall>
active

>  <ActivityOutcome_CPDBAS_MultiCellCall>
active

>  <ActivityOutcome_CPDBAS_MultiCellCall_Details>
multisite active; multisex active

>  <NTP_TechnicalReport>
TR 191

>  <ChemicalPage_URL>
http://potency.berkeley.edu/chempages/BIS(2-CHLORO-1-METHYLETHYL)ETHER,%20TECHNICAL%20GRADE.html

$$$$



  7  6  0  0  0  0  0  0  0  0999 V2000
    0.0000   -0.6638    0.0000 Cl  0  0  0  0  0  0  0  0  0  0  0  0
    1.1548    0.0000    0.0000 C   0  0  0  0  0  0  0  0  0  0  0  0
    2.3027   -0.6638    0.0000 C   0  0  0  0  0  0  0  0  0  0  0  0
    3.4575    0.0000    0.0000 O   0  0  0  0  0  0  0  0  0  0  0  0
    4.6122   -0.6638    0.0000 C   0  0  0  0  0  0  0  0  0  0  0  0
    5.7601    0.0000    0.0000 C   0  0  0  0  0  0  0  0  0  0  0  0
    6.9149   -0.6638    0.0000 Cl  0  0  0  0  0  0  0  0  0  0  0  0
  1  2  1  0  0  0  0
  2  3  1  0  0  0  0
  3  4  1  0  0  0  0
  4  5  1  0  0  0  0
  5  6  1  0  0  0  0
  6  7  1  0  0  0  0
M  END
>  <DSSTox_RID>
20168

>  <DSSTox_CID>
168

>  <DSSTox_Generic_SID>
20168

>  <DSSTox_FileID>
171_CPDBAS_v5d

>  <STRUCTURE_Formula>
C4H8Cl2O

>  <STRUCTURE_MolecularWeight>
143.0117

>  <STRUCTURE_ChemicalType>
defined organic

>  <STRUCTURE_TestedForm_DefinedOrganic>
parent

>  <STRUCTURE_Shown>
tested chemical

>  <TestSubstance_ChemicalName>
Bis-2-chloroethylether

>  <TestSubstance_CASRN>
111-44-4

>  <TestSubstance_Description>
single chemical compound

>  <STRUCTURE_ChemicalName_IUPAC>
bis(2-chloroethyl) ether

>  <STRUCTURE_SMILES>
ClCCOCCCl

>  <STRUCTURE_Parent_SMILES>
ClCCOCCCl

>  <STRUCTURE_InChI>
InChI=1/C4H8Cl2O/c5-1-3-7-4-2-6/h1-4H2

>  <STRUCTURE_InChIKey>
ZNSMNVMLTJELDZ-UHFFFAOYAN

>  <StudyType>
Carcinogenicity

>  <Endpoint>
TD50; Tumor Target Sites

>  <Species>
mouse

>  <ActivityOutcome_CPDBAS_Mutagenicity>
active

>  <TD50_Mouse_mg>
11.7

>  <TD50_Mouse_mmol>
0.0818

>  <ActivityScore_CPDBAS_Mouse>
41

>  <TD50_Mouse_Note>
TD50 is harmonic mean of more than one positive test

>  <TargetSites_Mouse_Male>
liver

>  <TargetSites_Mouse_Female>
no positive results

>  <ActivityOutcome_CPDBAS_Mouse>
active

>  <ActivityOutcome_CPDBAS_SingleCellCall>
active

>  <ChemicalPage_URL>
http://potency.berkeley.edu/chempages/BIS-2-CHLOROETHYLETHER.html

$$$$



 10  9  0  0  0  0  0  0  0  0999 V2000
    5.7670   -0.6638    0.0000 C   0  0  0  0  0  0  0  0  0  0  0  0
    4.6053    0.0000    0.0000 C   0  0  0  0  0  0  0  0  0  0  0  0
    3.4540   -0.6638    0.0000 C   0  0  0  0  0  0  0  0  0  0  0  0
    2.3027    0.0000    0.0000 O   0  0  0  0  0  0  0  0  0  0  0  0
    1.1513   -0.6638    0.0000 C   0  0  0  0  0  0  0  0  0  0  0  0
    0.0000    0.0000    0.0000 Cl  0  0  0  0  0  0  0  0  0  0  0  0
    6.9184    0.0000    0.0000 C   0  0  0  0  0  0  0  0  0  0  0  0
    8.0697   -0.6638    0.0000 O   0  0  0  0  0  0  0  0  0  0  0  0
    9.2210    0.0000    0.0000 C   0  0  0  0  0  0  0  0  0  0  0  0
   10.3724   -0.6638    0.0000 Cl  0  0  0  0  0  0  0  0  0  0  0  0
  1  2  1  0  0  0  0
  1  7  1  0  0  0  0
  2  3  1  0  0  0  0
  3  4  1  0  0  0  0
  4  5  1  0  0  0  0
  5  6  1  0  0  0  0
  7  8  1  0  0  0  0
  8  9  1  0  0  0  0
  9 10  1  0  0  0  0
M  END
>  <DSSTox_RID>
20169

>  <DSSTox_CID>
169

>  <DSSTox_Generic_SID>
20169

>  <DSSTox_FileID>
172_CPDBAS_v5d

>  <STRUCTURE_Formula>
C6H12Cl2O2

>  <STRUCTURE_MolecularWeight>
187.0656

>  <STRUCTURE_ChemicalType>
defined organic

>  <STRUCTURE_TestedForm_DefinedOrganic>
parent

>  <STRUCTURE_Shown>
tested chemical

>  <TestSubstance_ChemicalName>
Bis-1,4-(chloromethoxy)butane

>  <TestSubstance_CASRN>
13483-19-7

>  <TestSubstance_Description>
single chemical compound

>  <STRUCTURE_ChemicalName_IUPAC>
1,4-bis[(chloromethyl)oxy]butane

>  <STRUCTURE_SMILES>
C(CCOCCl)COCCl

>  <STRUCTURE_Parent_SMILES>
C(CCOCCl)COCCl

>  <STRUCTURE_InChI>
InChI=1/C6H12Cl2O2/c7-5-9-3-1-2-4-10-6-8/h1-6H2

>  <STRUCTURE_InChIKey>
RRSXICBKOPODSP-UHFFFAOYAQ

>  <StudyType>
Carcinogenicity

>  <Endpoint>
TD50; Tumor Target Sites

>  <Species>
mouse

>  <ActivityScore_CPDBAS_Mouse>
0

>  <TD50_Mouse_Note>
no positive results

>  <TargetSites_Mouse_Female>
no positive results

>  <ActivityOutcome_CPDBAS_Mouse>
inactive

>  <ActivityOutcome_CPDBAS_SingleCellCall>
inactive

>  <ChemicalPage_URL>
http://potency.berkeley.edu/chempages/BIS-1,4-(CHLOROMETHOXY)BUTANE.html

$$$$



  8  7  0  0  0  0  0  0  0  0999 V2000
    3.4639   -0.6621    0.0000 C   0  0  0  0  0  0  0  0  0  0  0  0
    4.6105    0.0000    0.0000 C   0  0  0  0  0  0  0  0  0  0  0  0
    5.7651   -0.6621    0.0000 O   0  0  0  0  0  0  0  0  0  0  0  0
    6.9197    0.0000    0.0000 C   0  0  0  0  0  0  0  0  0  0  0  0
    8.0744   -0.6621    0.0000 Cl  0  0  0  0  0  0  0  0  0  0  0  0
    2.3093    0.0000    0.0000 O   0  0  0  0  0  0  0  0  0  0  0  0
    1.1546   -0.6621    0.0000 C   0  0  0  0  0  0  0  0  0  0  0  0
    0.0000    0.0000    0.0000 Cl  0  0  0  0  0  0  0  0  0  0  0  0
  1  2  1  0  0  0  0
  1  6  1  0  0  0  0
  2  3  1  0  0  0  0
  3  4  1  0  0  0  0
  4  5  1  0  0  0  0
  6  7  1  0  0  0  0
  7  8  1  0  0  0  0
M  END
>  <DSSTox_RID>
20170

>  <DSSTox_CID>
170

>  <DSSTox_Generic_SID>
20170

>  <DSSTox_FileID>
173_CPDBAS_v5d

>  <STRUCTURE_Formula>
C4H8Cl2O2

>  <STRUCTURE_MolecularWeight>
159.012

>  <STRUCTURE_ChemicalType>
defined organic

>  <STRUCTURE_TestedForm_DefinedOrganic>
parent

>  <STRUCTURE_Shown>
tested chemical

>  <TestSubstance_ChemicalName>
Bis-1,2-(chloromethoxy)ethane

>  <TestSubstance_CASRN>
13483-18-6

>  <TestSubstance_Description>
single chemical compound

>  <STRUCTURE_ChemicalName_IUPAC>
1,2-bis[(chloromethyl)oxy]ethane

>  <STRUCTURE_SMILES>
C(COCCl)OCCl

>  <STRUCTURE_Parent_SMILES>
C(COCCl)OCCl

>  <STRUCTURE_InChI>
InChI=1/C4H8Cl2O2/c5-3-7-1-2-8-4-6/h1-4H2

>  <STRUCTURE_InChIKey>
IDFLGSYEBJNWMK-UHFFFAOYAP

>  <StudyType>
Carcinogenicity

>  <Endpoint>
TD50; Tumor Target Sites

>  <Species>
mouse

>  <TD50_Mouse_mg>
4.62

>  <TD50_Mouse_mmol>
0.0291

>  <ActivityScore_CPDBAS_Mouse>
46

>  <TD50_Mouse_Note>
positive test results only by intraperitoneal or intravenous injection

>  <TargetSites_Mouse_Female>
peritoneal cavity

>  <ActivityOutcome_CPDBAS_Mouse>
active

>  <ActivityOutcome_CPDBAS_SingleCellCall>
active

>  <ChemicalPage_URL>
http://potency.berkeley.edu/chempages/BIS-1,2-(CHLOROMETHOXY)ETHANE.html

$$$$



 12 11  0  0  0  0  0  0  0  0999 V2000
    3.4669   -0.6604    0.0000 C   0  0  0  0  0  0  0  0  0  0  0  0
    4.6225    0.0000    0.0000 C   0  0  0  0  0  0  0  0  0  0  0  0
    5.7782   -0.6604    0.0000 C   0  0  0  0  0  0  0  0  0  0  0  0
    6.9211    0.0000    0.0000 C   0  0  0  0  0  0  0  0  0  0  0  0
    8.0767   -0.6604    0.0000 C   0  0  0  0  0  0  0  0  0  0  0  0
    9.2324    0.0000    0.0000 C   0  0  0  0  0  0  0  0  0  0  0  0
   10.3880   -0.6604    0.0000 O   0  0  0  0  0  0  0  0  0  0  0  0
   11.5436    0.0000    0.0000 C   0  0  0  0  0  0  0  0  0  0  0  0
   12.6993   -0.6604    0.0000 Cl  0  0  0  0  0  0  0  0  0  0  0  0
    2.3113    0.0000    0.0000 O   0  0  0  0  0  0  0  0  0  0  0  0
    1.1556   -0.6604    0.0000 C   0  0  0  0  0  0  0  0  0  0  0  0
    0.0000    0.0000    0.0000 Cl  0  0  0  0  0  0  0  0  0  0  0  0
  1  2  1  0  0  0  0
  1 10  1  0  0  0  0
  2  3  1  0  0  0  0
  3  4  1  0  0  0  0
  4  5  1  0  0  0  0
  5  6  1  0  0  0  0
  6  7  1  0  0  0  0
  7  8  1  0  0  0  0
  8  9  1  0  0  0  0
 10 11  1  0  0  0  0
 11 12  1  0  0  0  0
M  END
>  <DSSTox_RID>
20171

>  <DSSTox_CID>
171

>  <DSSTox_Generic_SID>
20171

>  <DSSTox_FileID>
174_CPDBAS_v5d

>  <STRUCTURE_Formula>
C8H16Cl2O2

>  <STRUCTURE_MolecularWeight>
215.1192

>  <STRUCTURE_ChemicalType>
defined organic

>  <STRUCTURE_TestedForm_DefinedOrganic>
parent

>  <STRUCTURE_Shown>
tested chemical

>  <TestSubstance_ChemicalName>
Bis-1,6-(chloromethoxy)hexane

>  <TestSubstance_CASRN>
56894-92-9

>  <TestSubstance_Description>
single chemical compound

>  <STRUCTURE_ChemicalName_IUPAC>
1,6-bis[(chloromethyl)oxy]hexane

>  <STRUCTURE_SMILES>
C(CCCCCOCCl)OCCl

>  <STRUCTURE_Parent_SMILES>
C(CCCCCOCCl)OCCl

>  <STRUCTURE_InChI>
InChI=1/C8H16Cl2O2/c9-7-11-5-3-1-2-4-6-12-8-10/h1-8H2

>  <STRUCTURE_InChIKey>
QHEYFBGFAQOPBZ-UHFFFAOYAU

>  <StudyType>
Carcinogenicity

>  <Endpoint>
TD50; Tumor Target Sites

>  <Species>
mouse

>  <ActivityScore_CPDBAS_Mouse>
0

>  <TD50_Mouse_Note>
no positive results

>  <TargetSites_Mouse_Female>
no positive results

>  <ActivityOutcome_CPDBAS_Mouse>
inactive

>  <ActivityOutcome_CPDBAS_SingleCellCall>
inactive

>  <ChemicalPage_URL>
http://potency.berkeley.edu/chempages/BIS-1,6-(CHLOROMETHOXY)HEXANE.html

$$$$



 14 14  0  0  0  0  0  0  0  0999 V2000
    4.6054   -0.6678    0.0000 C   0  0  0  0  0  0  0  0  0  0  0  0
    5.7567    0.0000    0.0000 C   0  0  0  0  0  0  0  0  0  0  0  0
    6.9081   -0.6678    0.0000 C   0  0  0  0  0  0  0  0  0  0  0  0
    6.9081   -1.9918    0.0000 C   0  0  0  0  0  0  0  0  0  0  0  0
    5.7567   -2.6596    0.0000 C   0  0  0  0  0  0  0  0  0  0  0  0
    4.6054   -1.9918    0.0000 C   0  0  0  0  0  0  0  0  0  0  0  0
    3.4540   -2.6596    0.0000 C   0  0  0  0  0  0  0  0  0  0  0  0
    2.3027   -1.9918    0.0000 O   0  0  0  0  0  0  0  0  0  0  0  0
    1.1513   -2.6596    0.0000 C   0  0  0  0  0  0  0  0  0  0  0  0
    0.0000   -1.9918    0.0000 Cl  0  0  0  0  0  0  0  0  0  0  0  0
    8.0594    0.0000    0.0000 C   0  0  0  0  0  0  0  0  0  0  0  0
    9.2108   -0.6678    0.0000 O   0  0  0  0  0  0  0  0  0  0  0  0
   10.3621    0.0000    0.0000 C   0  0  0  0  0  0  0  0  0  0  0  0
   11.5135   -0.6678    0.0000 Cl  0  0  0  0  0  0  0  0  0  0  0  0
  1  2  2  0  0  0  0
  1  6  1  0  0  0  0
  2  3  1  0  0  0  0
  3  4  2  0  0  0  0
  3 11  1  0  0  0  0
  4  5  1  0  0  0  0
  5  6  2  0  0  0  0
  6  7  1  0  0  0  0
  7  8  1  0  0  0  0
  8  9  1  0  0  0  0
  9 10  1  0  0  0  0
 11 12  1  0  0  0  0
 12 13  1  0  0  0  0
 13 14  1  0  0  0  0
M  END
>  <DSSTox_RID>
20172

>  <DSSTox_CID>
172

>  <DSSTox_Generic_SID>
20172

>  <DSSTox_FileID>
175_CPDBAS_v5d

>  <STRUCTURE_Formula>
C10H12Cl2O2

>  <STRUCTURE_MolecularWeight>
235.1096

>  <STRUCTURE_ChemicalType>
defined organic

>  <STRUCTURE_TestedForm_DefinedOrganic>
parent

>  <STRUCTURE_Shown>
tested chemical

>  <TestSubstance_ChemicalName>
Bis-1,4-(chloromethoxy)-p-xylene

>  <TestSubstance_CASRN>
56894-91-8

>  <TestSubstance_Description>
single chemical compound

>  <STRUCTURE_ChemicalName_IUPAC>
1,4-bis{[(chloromethyl)oxy]methyl}benzene

>  <STRUCTURE_SMILES>
C1=CC(=CC=C1COCCl)COCCl

>  <STRUCTURE_Parent_SMILES>
C1=CC(=CC=C1COCCl)COCCl

>  <STRUCTURE_InChI>
InChI=1/C10H12Cl2O2/c11-7-13-5-9-1-2-10(4-3-9)6-14-8-12/h1-4H,5-8H2

>  <STRUCTURE_InChIKey>
BXIVHTWXKYBJEM-UHFFFAOYAL

>  <StudyType>
Carcinogenicity

>  <Endpoint>
TD50; Tumor Target Sites

>  <Species>
mouse

>  <TD50_Mouse_mg>
3.11

>  <TD50_Mouse_mmol>
0.0132

>  <ActivityScore_CPDBAS_Mouse>
49

>  <TD50_Mouse_Note>
positive test results only by intraperitoneal or intravenous injection

>  <TargetSites_Mouse_Female>
peritoneal cavity

>  <ActivityOutcome_CPDBAS_Mouse>
active

>  <ActivityOutcome_CPDBAS_SingleCellCall>
active

>  <ChemicalPage_URL>
http://potency.berkeley.edu/chempages/BIS-1,4-(CHLOROMETHOXY)-p-XYLENE.html

$$$$



  5  4  0  0  0  0  0  0  0  0999 V2000
    0.0000   -0.6638    0.0000 Cl  0  0  0  0  0  0  0  0  0  0  0  0
    1.1525    0.0000    0.0000 C   0  0  0  0  0  0  0  0  0  0  0  0
    2.3050   -0.6638    0.0000 O   0  0  0  0  0  0  0  0  0  0  0  0
    3.4575    0.0000    0.0000 C   0  0  0  0  0  0  0  0  0  0  0  0
    4.6099   -0.6638    0.0000 Cl  0  0  0  0  0  0  0  0  0  0  0  0
  1  2  1  0  0  0  0
  2  3  1  0  0  0  0
  3  4  1  0  0  0  0
  4  5  1  0  0  0  0
M  END
>  <DSSTox_RID>
20173

>  <DSSTox_CID>
173

>  <DSSTox_Generic_SID>
20173

>  <DSSTox_FileID>
176_CPDBAS_v5d

>  <STRUCTURE_Formula>
C2H4Cl2O

>  <STRUCTURE_MolecularWeight>
114.9586

>  <STRUCTURE_ChemicalType>
defined organic

>  <STRUCTURE_TestedForm_DefinedOrganic>
parent

>  <STRUCTURE_Shown>
tested chemical

>  <TestSubstance_ChemicalName>
Bis-(chloromethyl)ether

>  <TestSubstance_CASRN>
542-88-1

>  <TestSubstance_Description>
single chemical compound

>  <STRUCTURE_ChemicalName_IUPAC>
bis(chloromethyl) ether

>  <STRUCTURE_SMILES>
ClCOCCl

>  <STRUCTURE_Parent_SMILES>
ClCOCCl

>  <STRUCTURE_InChI>
InChI=1/C2H4Cl2O/c3-1-5-2-4/h1-2H2

>  <STRUCTURE_InChIKey>
HRQGCQVOJVTVLU-UHFFFAOYAN

>  <StudyType>
Carcinogenicity

>  <Endpoint>
TD50; Tumor Target Sites

>  <Species>
rat; mouse

>  <TD50_Rat_mg>
0.00357

>  <TD50_Rat_mmol>
0.0000311

>  <ActivityScore_CPDBAS_Rat>
72

>  <TargetSites_Rat_Male>
lung; nasal cavity

>  <ActivityOutcome_CPDBAS_Rat>
active

>  <TD50_Mouse_mg>
0.182

>  <TD50_Mouse_mmol>
0.00158

>  <ActivityScore_CPDBAS_Mouse>
60

>  <TD50_Mouse_Note>
TD50 is harmonic mean of more than one positive test

>  <TargetSites_Mouse_Male>
lung

>  <TargetSites_Mouse_Female>
peritoneal cavity

>  <ActivityOutcome_CPDBAS_Mouse>
active

>  <ActivityOutcome_CPDBAS_SingleCellCall>
active

>  <ActivityOutcome_CPDBAS_MultiCellCall>
active

>  <ActivityOutcome_CPDBAS_MultiCellCall_Details>
multisite active; multisex active; multispecies active

>  <ChemicalPage_URL>
http://potency.berkeley.edu/chempages/BIS-(CHLOROMETHYL)ETHER.html

$$$$



 24 26  0  0  0  0  0  0  0  0999 V2000
    4.6004   -2.6721    0.0000 O   0  0  0  0  0  0  0  0  0  0  0  0
    8.0300   -0.6749    0.0000 C   0  0  0  0  0  0  0  0  0  0  0  0
    8.0300   -1.9972    0.0000 C   0  0  0  0  0  0  0  0  0  0  0  0
    6.9006    0.0000    0.0000 C   0  0  0  0  0  0  0  0  0  0  0  0
    6.9006   -2.6721    0.0000 C   0  0  0  0  0  0  0  0  0  0  0  0
    5.7436   -0.6749    0.0000 C   0  0  0  0  0  0  0  0  0  0  0  0
    5.7436   -1.9972    0.0000 C   0  0  0  0  0  0  0  0  0  0  0  0
    3.4434   -0.6749    0.0000 C   0  0  0  0  0  0  0  0  0  0  0  0
    3.4434   -1.9972    0.0000 C   0  0  0  0  0  0  0  0  0  0  0  0
    2.3002    0.0000    0.0000 C   0  0  0  0  0  0  0  0  0  0  0  0
    2.3002   -2.6721    0.0000 N   0  0  0  0  0  0  0  0  0  0  0  0
    1.1432   -0.6749    0.0000 C   0  0  0  0  0  0  0  0  0  0  0  0
    1.1432   -1.9972    0.0000 C   0  0  0  0  0  0  0  0  0  0  0  0
    4.6004    0.0000    0.0000 Cl  0  0  0  0  0  0  0  0  0  0  0  0
    0.0000    0.0000    0.0000 Cl  0  0  0  0  0  0  0  0  0  0  0  0
    9.1732    0.0000    0.0000 O   0  0  0  0  0  0  0  0  0  0  0  0
   13.7736   -2.6721    0.0000 Cl  0  0  0  0  0  0  0  0  0  0  0  0
    9.1732   -2.6721    0.0000 Cl  0  0  0  0  0  0  0  0  0  0  0  0
   12.6304   -0.6749    0.0000 C   0  0  0  0  0  0  0  0  0  0  0  0
   12.6304   -1.9972    0.0000 C   0  0  0  0  0  0  0  0  0  0  0  0
   11.4734    0.0000    0.0000 N   0  0  0  0  0  0  0  0  0  0  0  0
   11.4734   -2.6721    0.0000 C   0  0  0  0  0  0  0  0  0  0  0  0
   10.3302   -0.6749    0.0000 C   0  0  0  0  0  0  0  0  0  0  0  0
   10.3302   -1.9972    0.0000 C   0  0  0  0  0  0  0  0  0  0  0  0
  1  7  1  0  0  0  0
  1  9  1  0  0  0  0
  2  3  1  0  0  0  0
  2  4  2  0  0  0  0
  2 16  1  0  0  0  0
  3  5  2  0  0  0  0
  4  6  1  0  0  0  0
  5  7  1  0  0  0  0
  6  7  2  0  0  0  0
  8  9  1  0  0  0  0
  8 10  2  0  0  0  0
  8 14  1  0  0  0  0
  9 11  2  0  0  0  0
 10 12  1  0  0  0  0
 11 13  1  0  0  0  0
 12 13  2  0  0  0  0
 12 15  1  0  0  0  0
 16 23  1  0  0  0  0
 17 20  1  0  0  0  0
 18 24  1  0  0  0  0
 19 20  1  0  0  0  0
 19 21  2  0  0  0  0
 20 22  2  0  0  0  0
 21 23  1  0  0  0  0
 22 24  1  0  0  0  0
 23 24  2  0  0  0  0
M  END
>  <DSSTox_RID>
20175

>  <DSSTox_CID>
175

>  <DSSTox_Generic_SID>
20175

>  <DSSTox_FileID>
178_CPDBAS_v5d

>  <STRUCTURE_Formula>
C16H8Cl4N2O2

>  <STRUCTURE_MolecularWeight>
402.0589

>  <STRUCTURE_ChemicalType>
defined organic

>  <STRUCTURE_TestedForm_DefinedOrganic>
parent

>  <STRUCTURE_Shown>
tested chemical

>  <TestSubstance_ChemicalName>
1,4-Bis[2-(3,5-dichloropyridyloxy)]benzene

>  <TestSubstance_CASRN>
76150-91-9

>  <TestSubstance_Description>
single chemical compound

>  <STRUCTURE_ChemicalName_IUPAC>
2,2'-[benzene-1,4-diylbis(oxy)]bis(3,5-dichloropyridine)

>  <STRUCTURE_SMILES>
Clc3cc(Cl)cnc3Oc1ccc(cc1)Oc2ncc(Cl)cc2Cl

>  <STRUCTURE_Parent_SMILES>
Clc3cc(Cl)cnc3Oc1ccc(cc1)Oc2ncc(Cl)cc2Cl

>  <STRUCTURE_InChI>
InChI=1/C16H8Cl4N2O2/c17-9-5-13(19)15(21-7-9)23-11-1-2-12(4-3-11)24-16-14(20)6-10(18)8-22-16/h1-8H

>  <STRUCTURE_InChIKey>
BAFKRPOFIYPKBQ-UHFFFAOYAW

>  <StudyType>
Carcinogenicity

>  <Endpoint>
TD50; Tumor Target Sites

>  <Species>
rat

>  <ActivityScore_CPDBAS_Rat>
0

>  <TD50_Rat_Note>
no positive results

>  <TargetSites_Rat_Male>
no positive results

>  <ActivityOutcome_CPDBAS_Rat>
inactive

>  <ActivityOutcome_CPDBAS_SingleCellCall>
inactive

>  <Note_CPDBAS>
Rat added v2a

>  <ChemicalPage_URL>
http://potency.berkeley.edu/chempages/1,4-BIS[2-(3,5-DICHLOROPYRIDYLOXY)]BENZENE.html

$$$$



 25 27  0  0  0  0  0  0  0  0999 V2000
    3.4518    0.0000    0.0000 C   0  0  0  0  0  0  0  0  0  0  0  0
    2.3080   -0.6740    0.0000 C   0  0  0  0  0  0  0  0  0  0  0  0
    2.3080   -2.0017    0.0000 C   0  0  0  0  0  0  0  0  0  0  0  0
    3.4518   -2.6655    0.0000 C   0  0  0  0  0  0  0  0  0  0  0  0
    4.6059   -2.0017    0.0000 C   0  0  0  0  0  0  0  0  0  0  0  0
    4.6059   -0.6740    0.0000 C   0  0  0  0  0  0  0  0  0  0  0  0
    5.7599   -2.6655    0.0000 N   0  0  0  0  0  0  0  0  0  0  0  0
    5.7599   -3.9931    0.0000 C   0  0  0  0  0  0  0  0  0  0  0  0
    4.6059   -4.6569    0.0000 N   0  0  0  0  0  0  0  0  0  0  0  0
    3.4518   -3.9931    0.0000 C   0  0  0  0  0  0  0  0  0  0  0  0
    2.3080   -4.6569    0.0000 N   0  0  0  0  0  0  0  0  0  0  0  0
    2.3080   -5.9845    0.0000 C   0  0  0  0  0  0  0  0  0  0  0  0
    1.1540   -6.6484    0.0000 C   0  0  0  0  0  0  0  0  0  0  0  0
    1.1540   -7.9862    0.0000 O   0  0  0  0  0  0  0  0  0  0  0  0
    1.1540   -3.9931    0.0000 C   0  0  0  0  0  0  0  0  0  0  0  0
    0.0000   -4.6569    0.0000 C   0  0  0  0  0  0  0  0  0  0  0  0
    0.0000   -5.9845    0.0000 O   0  0  0  0  0  0  0  0  0  0  0  0
    6.9139   -4.6569    0.0000 C   0  0  0  0  0  0  0  0  0  0  0  0
    8.1292   -4.1157    0.0000 C   0  0  0  0  0  0  0  0  0  0  0  0
    9.0177   -5.1063    0.0000 C   0  0  0  0  0  0  0  0  0  0  0  0
    8.3539   -6.2603    0.0000 C   0  0  0  0  0  0  0  0  0  0  0  0
    7.0467   -5.9845    0.0000 S   0  0  0  0  0  0  0  0  0  0  0  0
    8.8951   -7.4756    0.0000 N   0  3  0  0  0  0  0  0  0  0  0  0
   10.2125   -7.6083    0.0000 O   0  5  0  0  0  0  0  0  0  0  0  0
    8.1088   -8.5479    0.0000 O   0  0  0  0  0  0  0  0  0  0  0  0
  1  2  2  0  0  0  0
  1  6  1  0  0  0  0
  2  3  1  0  0  0  0
  3  4  2  0  0  0  0
  4  5  1  0  0  0  0
  4 10  1  0  0  0  0
  5  6  2  0  0  0  0
  5  7  1  0  0  0  0
  7  8  2  0  0  0  0
  8  9  1  0  0  0  0
  8 18  1  0  0  0  0
  9 10  2  0  0  0  0
 10 11  1  0  0  0  0
 11 12  1  0  0  0  0
 11 15  1  0  0  0  0
 12 13  1  0  0  0  0
 13 14  1  0  0  0  0
 15 16  1  0  0  0  0
 16 17  1  0  0  0  0
 18 19  2  0  0  0  0
 18 22  1  0  0  0  0
 19 20  1  0  0  0  0
 20 21  2  0  0  0  0
 21 22  1  0  0  0  0
 21 23  1  0  0  0  0
 23 24  1  0  0  0  0
 23 25  2  0  0  0  0
M  END
>  <DSSTox_RID>
20176

>  <DSSTox_CID>
176

>  <DSSTox_Generic_SID>
20176

>  <DSSTox_FileID>
179_CPDBAS_v5d

>  <STRUCTURE_Formula>
C16H16N4O4S

>  <STRUCTURE_MolecularWeight>
360.3868

>  <STRUCTURE_ChemicalType>
defined organic

>  <STRUCTURE_TestedForm_DefinedOrganic>
parent

>  <STRUCTURE_Shown>
tested chemical

>  <TestSubstance_ChemicalName>
4-Bis(2-hydroxyethyl)amino-2-(5-nitro-2-thienyl)quinazoline

>  <TestSubstance_CASRN>
33372-39-3

>  <TestSubstance_Description>
single chemical compound

>  <STRUCTURE_ChemicalName_IUPAC>
2,2'-{[2-(5-nitro-2-thienyl)quinazolin-4-yl]imino}diethanol

>  <STRUCTURE_SMILES>
C1=CC=C2C(=C1)N=C(N=C2N(CCO)CCO)C3=CC=C(S3)[N+]([O-])=O

>  <STRUCTURE_Parent_SMILES>
C1=CC=C2C(=C1)N=C(N=C2N(CCO)CCO)C3=CC=C(S3)[N+]([O-])=O

>  <STRUCTURE_InChI>
InChI=1/C16H16N4O4S/c21-9-7-19(8-10-22)16-11-3-1-2-4-12(11)17-15(18-16)13-5-6-14(25-13)20(23)24/h1-6,21-22H,7-10H2

>  <STRUCTURE_InChIKey>
QPDGFLZXRKDMRL-UHFFFAOYAP

>  <StudyType>
Carcinogenicity

>  <Endpoint>
TD50; Tumor Target Sites

>  <Species>
rat

>  <ActivityOutcome_CPDBAS_Mutagenicity>
inactive

>  <TD50_Rat_mg>
3.14

>  <TD50_Rat_mmol>
0.00871

>  <ActivityScore_CPDBAS_Rat>
47

>  <TargetSites_Rat_Male>
mammary gland; small intestine

>  <ActivityOutcome_CPDBAS_Rat>
active

>  <ActivityOutcome_CPDBAS_SingleCellCall>
active

>  <ActivityOutcome_CPDBAS_MultiCellCall>
active

>  <ActivityOutcome_CPDBAS_MultiCellCall_Details>
multisite active

>  <Note_CPDBAS>
Mutagenicity_SAL_CPDB added v3a

>  <ChemicalPage_URL>
http://potency.berkeley.edu/chempages/4-BIS(2-HYDROXYETHYL)AMINO-2-(5-NITRO-2-THIENYL)QU.html

$$$$



 22 24  0  0  0  0  0  0  0  0999 V2000
    4.4072   -6.6521    0.0000 N   0  0  0  0  0  0  0  0  0  0  0  0
    3.2600   -5.9919    0.0000 C   0  0  0  0  0  0  0  0  0  0  0  0
    3.2600   -4.6548    0.0000 N   0  0  0  0  0  0  0  0  0  0  0  0
    4.4072   -3.9946    0.0000 C   0  0  0  0  0  0  0  0  0  0  0  0
    5.5627   -4.6548    0.0000 C   0  0  0  0  0  0  0  0  0  0  0  0
    6.7182   -3.9946    0.0000 C   0  0  0  0  0  0  0  0  0  0  0  0
    7.8654   -4.6548    0.0000 C   0  0  0  0  0  0  0  0  0  0  0  0
    7.8654   -5.9919    0.0000 C   0  0  0  0  0  0  0  0  0  0  0  0
    6.7182   -6.6521    0.0000 C   0  0  0  0  0  0  0  0  0  0  0  0
    5.5627   -5.9919    0.0000 C   0  0  0  0  0  0  0  0  0  0  0  0
    4.4072   -2.6576    0.0000 N   0  0  0  0  0  0  0  0  0  0  0  0
    5.5627   -1.9973    0.0000 C   0  0  0  0  0  0  0  0  0  0  0  0
    5.5627   -0.6685    0.0000 C   0  0  0  0  0  0  0  0  0  0  0  0
    4.4072    0.0000    0.0000 O   0  0  0  0  0  0  0  0  0  0  0  0
    3.2600   -1.9973    0.0000 C   0  0  0  0  0  0  0  0  0  0  0  0
    3.2600   -0.6685    0.0000 C   0  0  0  0  0  0  0  0  0  0  0  0
    2.1046    0.0000    0.0000 O   0  0  0  0  0  0  0  0  0  0  0  0
    2.1046   -6.6521    0.0000 C   0  0  0  0  0  0  0  0  0  0  0  0
    1.9643   -7.9727    0.0000 C   0  0  0  0  0  0  0  0  0  0  0  0
    0.6685   -8.2533    0.0000 C   0  0  0  0  0  0  0  0  0  0  0  0
    0.0000   -7.0978    0.0000 C   0  0  0  0  0  0  0  0  0  0  0  0
    0.8914   -6.1157    0.0000 S   0  0  0  0  0  0  0  0  0  0  0  0
  1  2  1  0  0  0  0
  1 10  2  0  0  0  0
  2  3  2  0  0  0  0
  2 18  1  0  0  0  0
  3  4  1  0  0  0  0
  4  5  2  0  0  0  0
  4 11  1  0  0  0  0
  5  6  1  0  0  0  0
  5 10  1  0  0  0  0
  6  7  2  0  0  0  0
  7  8  1  0  0  0  0
  8  9  2  0  0  0  0
  9 10  1  0  0  0  0
 11 12  1  0  0  0  0
 11 15  1  0  0  0  0
 12 13  1  0  0  0  0
 13 14  1  0  0  0  0
 15 16  1  0  0  0  0
 16 17  1  0  0  0  0
 18 19  2  0  0  0  0
 18 22  1  0  0  0  0
 19 20  1  0  0  0  0
 20 21  2  0  0  0  0
 21 22  1  0  0  0  0
M  END
>  <DSSTox_RID>
20177

>  <DSSTox_CID>
177

>  <DSSTox_Generic_SID>
20177

>  <DSSTox_FileID>
180_CPDBAS_v5d

>  <STRUCTURE_Formula>
C16H17N3O2S

>  <STRUCTURE_MolecularWeight>
315.3892

>  <STRUCTURE_ChemicalType>
defined organic

>  <STRUCTURE_TestedForm_DefinedOrganic>
parent

>  <STRUCTURE_Shown>
tested chemical

>  <TestSubstance_ChemicalName>
4-Bis(2-hydroxyethyl)amino-2-(2-thienyl)quinazoline

>  <TestSubstance_CASRN>
58139-47-2

>  <TestSubstance_Description>
single chemical compound

>  <STRUCTURE_ChemicalName_IUPAC>
2,2'-{[2-(2-thienyl)quinazolin-4-yl]imino}diethanol

>  <STRUCTURE_SMILES>
N1C(=NC(=C2C=CC=CC=12)N(CCO)CCO)C3=CC=CS3

>  <STRUCTURE_Parent_SMILES>
N1C(=NC(=C2C=CC=CC=12)N(CCO)CCO)C3=CC=CS3

>  <STRUCTURE_InChI>
InChI=1/C16H17N3O2S/c20-9-7-19(8-10-21)16-12-4-1-2-5-13(12)17-15(18-16)14-6-3-11-22-14/h1-6,11,20-21H,7-10H2

>  <STRUCTURE_InChIKey>
ZIJZEJQXPLFJIC-UHFFFAOYAW

>  <StudyType>
Carcinogenicity

>  <Endpoint>
TD50; Tumor Target Sites

>  <Species>
rat

>  <ActivityOutcome_CPDBAS_Mutagenicity>
inactive

>  <ActivityScore_CPDBAS_Rat>
0

>  <TD50_Rat_Note>
no positive results

>  <TargetSites_Rat_Female>
no positive results

>  <ActivityOutcome_CPDBAS_Rat>
inactive

>  <ActivityOutcome_CPDBAS_SingleCellCall>
inactive

>  <ChemicalPage_URL>
http://potency.berkeley.edu/chempages/4-BIS(2-HYDROXYETHYL)AMINO-2-(2-THIENYL)QUINAZOLIN.html

$$$$



  9  8  0  0  0  0  0  0  0  0999 V2000
    6.9090   -1.9967    0.0000 C   0  0  0  0  0  0  0  0  0  0  0  0
    5.7552   -1.3334    0.0000 C   0  0  3  0  0  0  0  0  0  0  0  0
    4.6083   -1.9967    0.0000 C   0  0  0  0  0  0  0  0  0  0  0  0
    3.4545   -1.3334    0.0000 N   0  0  0  0  0  0  0  0  0  0  0  0
    2.3007   -1.9967    0.0000 C   0  0  0  0  0  0  0  0  0  0  0  0
    1.1538   -1.3334    0.0000 C   0  0  3  0  0  0  0  0  0  0  0  0
    0.0000   -1.9967    0.0000 C   0  0  0  0  0  0  0  0  0  0  0  0
    1.1538    0.0000    0.0000 O   0  0  0  0  0  0  0  0  0  0  0  0
    5.7552    0.0000    0.0000 O   0  0  0  0  0  0  0  0  0  0  0  0
  1  2  1  0  0  0  0
  2  3  1  0  0  0  0
  2  9  1  0  0  0  0
  3  4  1  0  0  0  0
  4  5  1  0  0  0  0
  5  6  1  0  0  0  0
  6  7  1  0  0  0  0
  6  8  1  0  0  0  0
M  END
>  <DSSTox_RID>
20179

>  <DSSTox_CID>
179

>  <DSSTox_Generic_SID>
20179

>  <DSSTox_FileID>
182_CPDBAS_v5d

>  <STRUCTURE_Formula>
C6H15NO2

>  <STRUCTURE_MolecularWeight>
133.1888

>  <STRUCTURE_ChemicalType>
defined organic

>  <STRUCTURE_TestedForm_DefinedOrganic>
parent

>  <STRUCTURE_Shown>
tested chemical

>  <TestSubstance_ChemicalName>
Bis(2-hydroxypropyl)amine

>  <TestSubstance_CASRN>
110-97-4

>  <TestSubstance_Description>
single chemical compound

>  <STRUCTURE_ChemicalName_IUPAC>
1,1'-iminodipropan-2-ol

>  <STRUCTURE_SMILES>
CC(CNCC(C)O)O

>  <STRUCTURE_Parent_SMILES>
CC(CNCC(C)O)O

>  <STRUCTURE_InChI>
InChI=1/C6H15NO2/c1-5(8)3-7-4-6(2)9/h5-9H,3-4H2,1-2H3

>  <STRUCTURE_InChIKey>
LVTYICIALWPMFW-UHFFFAOYAD

>  <StudyType>
Carcinogenicity

>  <Endpoint>
TD50; Tumor Target Sites

>  <Species>
rat

>  <ActivityOutcome_CPDBAS_Mutagenicity>
inactive

>  <ActivityScore_CPDBAS_Rat>
0

>  <TD50_Rat_Note>
no positive results

>  <TargetSites_Rat_Male>
no positive results

>  <ActivityOutcome_CPDBAS_Rat>
inactive

>  <ActivityOutcome_CPDBAS_SingleCellCall>
inactive

>  <ChemicalPage_URL>
http://potency.berkeley.edu/chempages/BIS(2-HYDROXYPROPYL)AMINE.html

$$$$



 17 18  0  0  0  0  0  0  0  0999 V2000
    2.8233    0.0000    0.0000 C   0  0  0  0  0  0  0  0  0  0  0  0
    3.7620   -0.9386    0.0000 C   0  0  0  0  0  0  0  0  0  0  0  0
    4.7006   -1.8773    0.0000 C   0  0  0  0  0  0  0  0  0  0  0  0
    5.9744   -1.5867    0.0000 C   0  0  0  0  0  0  0  0  0  0  0  0
    6.8907   -2.5477    0.0000 C   0  0  0  0  0  0  0  0  0  0  0  0
    6.5108   -3.8364    0.0000 C   0  0  0  0  0  0  0  0  0  0  0  0
    5.2295   -4.1419    0.0000 C   0  0  0  0  0  0  0  0  0  0  0  0
    4.3058   -3.1735    0.0000 C   0  0  0  0  0  0  0  0  0  0  0  0
    7.4494   -4.7751    0.0000 O   0  0  0  0  0  0  0  0  0  0  0  0
    2.8233   -1.8773    0.0000 C   0  0  0  0  0  0  0  0  0  0  0  0
    3.1660   -3.1660    0.0000 C   0  0  0  0  0  0  0  0  0  0  0  0
    2.2274   -4.1046    0.0000 C   0  0  0  0  0  0  0  0  0  0  0  0
    0.9386   -3.7620    0.0000 C   0  0  0  0  0  0  0  0  0  0  0  0
    0.5960   -2.4807    0.0000 C   0  0  0  0  0  0  0  0  0  0  0  0
    1.5346   -1.5346    0.0000 C   0  0  0  0  0  0  0  0  0  0  0  0
    0.0000   -4.7006    0.0000 O   0  0  0  0  0  0  0  0  0  0  0  0
    4.7006    0.0000    0.0000 C   0  0  0  0  0  0  0  0  0  0  0  0
  1  2  1  0  0  0  0
  2  3  1  0  0  0  0
  2 10  1  0  0  0  0
  2 17  1  0  0  0  0
  3  4  2  0  0  0  0
  3  8  1  0  0  0  0
  4  5  1  0  0  0  0
  5  6  2  0  0  0  0
  6  7  1  0  0  0  0
  6  9  1  0  0  0  0
  7  8  2  0  0  0  0
 10 11  2  0  0  0  0
 10 15  1  0  0  0  0
 11 12  1  0  0  0  0
 12 13  2  0  0  0  0
 13 14  1  0  0  0  0
 13 16  1  0  0  0  0
 14 15  2  0  0  0  0
M  END
>  <DSSTox_RID>
20182

>  <DSSTox_CID>
182

>  <DSSTox_Generic_SID>
20182

>  <DSSTox_FileID>
185_CPDBAS_v5d

>  <STRUCTURE_Formula>
C15H16O2

>  <STRUCTURE_MolecularWeight>
228.2902

>  <STRUCTURE_ChemicalType>
defined organic

>  <STRUCTURE_TestedForm_DefinedOrganic>
parent

>  <STRUCTURE_Shown>
tested chemical

>  <TestSubstance_ChemicalName>
Bisphenol A

>  <TestSubstance_CASRN>
80-05-7

>  <TestSubstance_Description>
single chemical compound

>  <STRUCTURE_ChemicalName_IUPAC>
4,4'-propane-2,2-diyldiphenol

>  <STRUCTURE_SMILES>
C(C1C=CC(=CC=1)O)(C2=CC=C(C=C2)O)(C)C

>  <STRUCTURE_Parent_SMILES>
C(C1C=CC(=CC=1)O)(C2=CC=C(C=C2)O)(C)C

>  <STRUCTURE_InChI>
InChI=1/C15H16O2/c1-15(2,11-3-7-13(16)8-4-11)12-5-9-14(17)10-6-12/h3-10,16-17H,1-2H3

>  <STRUCTURE_InChIKey>
IISBACLAFKSPIT-UHFFFAOYAI

>  <StudyType>
Carcinogenicity

>  <Endpoint>
TD50; Tumor Target Sites

>  <Species>
rat; mouse

>  <ActivityOutcome_CPDBAS_Mutagenicity>
inactive

>  <ActivityScore_CPDBAS_Rat>
0

>  <TD50_Rat_Note>
no positive results

>  <TargetSites_Rat_Male>
no positive results

>  <TargetSites_Rat_Female>
no positive results

>  <ActivityOutcome_CPDBAS_Rat>
inactive

>  <ActivityScore_CPDBAS_Mouse>
0

>  <TD50_Mouse_Note>
no positive results

>  <TargetSites_Mouse_Male>
no positive results

>  <TargetSites_Mouse_Female>
no positive results

>  <ActivityOutcome_CPDBAS_Mouse>
inactive

>  <ActivityOutcome_CPDBAS_SingleCellCall>
inactive

>  <ActivityOutcome_CPDBAS_MultiCellCall>
inactive

>  <ActivityOutcome_CPDBAS_MultiCellCall_Details>
multisex inactive; multispecies inactive

>  <NTP_TechnicalReport>
TR 215

>  <ChemicalPage_URL>
http://potency.berkeley.edu/chempages/BISPHENOL%20A.html

$$$$



 20 22  0  0  0  0  0  0  0  0999 V2000
    3.4553    0.0000    0.0000 O   0  0  0  0  0  0  0  0  0  0  0  0
    3.4553   -1.3338    0.0000 C   0  0  0  0  0  0  0  0  0  0  0  0
    4.6094   -1.9972    0.0000 C   0  0  0  0  0  0  0  0  0  0  0  0
    4.6094   -3.3240    0.0000 C   0  0  0  0  0  0  0  0  0  0  0  0
    5.7566   -3.9943    0.0000 C   0  0  0  0  0  0  0  0  0  0  0  0
    6.9106   -3.3240    0.0000 C   0  0  0  0  0  0  0  0  0  0  0  0
    6.9106   -1.9972    0.0000 C   0  0  0  0  0  0  0  0  0  0  0  0
    5.7566   -1.3338    0.0000 C   0  0  0  0  0  0  0  0  0  0  0  0
    5.7566    0.0000    0.0000 N   0  0  0  0  0  0  0  0  0  0  0  0
    5.7566   -5.3212    0.0000 N   0  0  0  0  0  0  0  0  0  0  0  0
    3.4553   -3.9943    0.0000 C   0  0  0  0  0  0  0  0  0  0  0  0
    3.4553   -5.3212    0.0000 O   0  0  0  0  0  0  0  0  0  0  0  0
    2.3012   -3.3240    0.0000 C   0  0  0  0  0  0  0  0  0  0  0  0
    1.1541   -3.9943    0.0000 C   0  0  0  0  0  0  0  0  0  0  0  0
    0.0000   -3.3240    0.0000 C   0  0  0  0  0  0  0  0  0  0  0  0
    0.0000   -1.9972    0.0000 C   0  0  0  0  0  0  0  0  0  0  0  0
    1.1541   -1.3338    0.0000 C   0  0  0  0  0  0  0  0  0  0  0  0
    2.3012   -1.9972    0.0000 C   0  0  0  0  0  0  0  0  0  0  0  0
    1.1541    0.0000    0.0000 N   0  0  0  0  0  0  0  0  0  0  0  0
    1.1541   -5.3212    0.0000 N   0  0  0  0  0  0  0  0  0  0  0  0
  1  2  2  0  0  0  0
  2  3  1  0  0  0  0
  2 18  1  0  0  0  0
  3  4  2  0  0  0  0
  3  8  1  0  0  0  0
  4  5  1  0  0  0  0
  4 11  1  0  0  0  0
  5  6  2  0  0  0  0
  5 10  1  0  0  0  0
  6  7  1  0  0  0  0
  7  8  2  0  0  0  0
  8  9  1  0  0  0  0
 11 12  2  0  0  0  0
 11 13  1  0  0  0  0
 13 14  2  0  0  0  0
 13 18  1  0  0  0  0
 14 15  1  0  0  0  0
 14 20  1  0  0  0  0
 15 16  2  0  0  0  0
 16 17  1  0  0  0  0
 17 18  2  0  0  0  0
 17 19  1  0  0  0  0
M  END
>  <DSSTox_RID>
20188

>  <DSSTox_CID>
188

>  <DSSTox_Generic_SID>
20188

>  <DSSTox_FileID>
191_CPDBAS_v5d

>  <STRUCTURE_Formula>
C14H12N4O2

>  <STRUCTURE_MolecularWeight>
268.2707

>  <STRUCTURE_ChemicalType>
defined organic

>  <STRUCTURE_TestedForm_DefinedOrganic>
parent

>  <STRUCTURE_Shown>
tested chemical

>  <TestSubstance_ChemicalName>
C.I. disperse blue 1

>  <TestSubstance_CASRN>
2475-45-8

>  <TestSubstance_Description>
single chemical compound

>  <ChemicalNote>
C.I. 64500

>  <STRUCTURE_ChemicalName_IUPAC>
1,4,5,8-tetraaminoanthracene-9,10-dione

>  <STRUCTURE_SMILES>
O=C1C2=C(C(=CC=C2N)N)C(=O)C3=C(C=CC(=C13)N)N

>  <STRUCTURE_Parent_SMILES>
O=C1C2=C(C(=CC=C2N)N)C(=O)C3=C(C=CC(=C13)N)N

>  <STRUCTURE_InChI>
InChI=1/C14H12N4O2/c15-5-1-2-6(16)10-9(5)13(19)11-7(17)3-4-8(18)12(11)14(10)20/h1-4H,15-18H2

>  <STRUCTURE_InChIKey>
JSFUMBWFPQSADC-UHFFFAOYAB

>  <StudyType>
Carcinogenicity

>  <Endpoint>
TD50; Tumor Target Sites

>  <Species>
rat; mouse

>  <ActivityOutcome_CPDBAS_Mutagenicity>
active

>  <TD50_Rat_mg>
156

>  <TD50_Rat_mmol>
0.582

>  <ActivityScore_CPDBAS_Rat>
28

>  <TD50_Rat_Note>
TD50 is harmonic mean of more than one positive test

>  <TargetSites_Rat_Male>
urinary bladder

>  <TargetSites_Rat_Female>
urinary bladder

>  <ActivityOutcome_CPDBAS_Rat>
active

>  <ActivityScore_CPDBAS_Mouse>
0

>  <TD50_Mouse_Note>
no positive results

>  <TargetSites_Mouse_Male>
no positive results

>  <TargetSites_Mouse_Female>
no positive results

>  <ActivityOutcome_CPDBAS_Mouse>
inactive

>  <ActivityOutcome_CPDBAS_SingleCellCall>
active

>  <ActivityOutcome_CPDBAS_MultiCellCall>
active

>  <ActivityOutcome_CPDBAS_MultiCellCall_Details>
multisex active

>  <NTP_TechnicalReport>
TR 299

>  <ChemicalPage_URL>
http://potency.berkeley.edu/chempages/C.I.%20DISPERSE%20BLUE%201.html

$$$$



 18 18  0  0  0  0  0  0  0  0999 V2000
    2.3034   -3.3262    0.0000 C   0  0  0  0  0  0  0  0  0  0  0  0
    2.3034   -1.9994    0.0000 C   0  0  0  0  0  0  0  0  0  0  0  0
    3.4552   -1.3360    0.0000 C   0  0  0  0  0  0  0  0  0  0  0  0
    4.6069   -1.9994    0.0000 C   0  0  0  0  0  0  0  0  0  0  0  0
    4.6069   -3.3262    0.0000 C   0  0  0  0  0  0  0  0  0  0  0  0
    3.4552   -3.9896    0.0000 C   0  0  0  0  0  0  0  0  0  0  0  0
    5.7586   -3.9896    0.0000 N   0  0  0  0  0  0  0  0  0  0  0  0
    6.9103   -3.3262    0.0000 C   0  0  0  0  0  0  0  0  0  0  0  0
    8.0620   -3.9896    0.0000 C   0  0  0  0  0  0  0  0  0  0  0  0
    9.2137   -3.3262    0.0000 O   0  0  0  0  0  0  0  0  0  0  0  0
    5.7586   -5.3255    0.0000 C   0  0  0  0  0  0  0  0  0  0  0  0
    6.9103   -5.9889    0.0000 C   0  0  0  0  0  0  0  0  0  0  0  0
    8.0620   -5.3255    0.0000 O   0  0  0  0  0  0  0  0  0  0  0  0
    1.1517   -1.3360    0.0000 N   0  0  0  0  0  0  0  0  0  0  0  0
    1.1517    0.0000    0.0000 C   0  0  0  0  0  0  0  0  0  0  0  0
    1.1517   -3.9896    0.0000 N   0  3  0  0  0  0  0  0  0  0  0  0
    0.0000   -3.3262    0.0000 O   0  5  0  0  0  0  0  0  0  0  0  0
    1.1517   -5.3255    0.0000 O   0  0  0  0  0  0  0  0  0  0  0  0
  1  2  2  0  0  0  0
  1  6  1  0  0  0  0
  1 16  1  0  0  0  0
  2  3  1  0  0  0  0
  2 14  1  0  0  0  0
  3  4  2  0  0  0  0
  4  5  1  0  0  0  0
  5  6  2  0  0  0  0
  5  7  1  0  0  0  0
  7  8  1  0  0  0  0
  7 11  1  0  0  0  0
  8  9  1  0  0  0  0
  9 10  1  0  0  0  0
 11 12  1  0  0  0  0
 12 13  1  0  0  0  0
 14 15  1  0  0  0  0
 16 17  1  0  0  0  0
 16 18  2  0  0  0  0
M  END
>  <DSSTox_RID>
20191

>  <DSSTox_CID>
191

>  <DSSTox_Generic_SID>
20191

>  <DSSTox_FileID>
194_CPDBAS_v5d

>  <STRUCTURE_Formula>
C11H17N3O4

>  <STRUCTURE_MolecularWeight>
255.2704

>  <STRUCTURE_ChemicalType>
defined organic

>  <STRUCTURE_TestedForm_DefinedOrganic>
parent

>  <STRUCTURE_Shown>
tested chemical

>  <TestSubstance_ChemicalName>
HC blue no. 1

>  <TestSubstance_CASRN>
2784-94-3

>  <TestSubstance_Description>
single chemical compound

>  <STRUCTURE_ChemicalName_IUPAC>
2,2'-{[4-(methylamino)-3-nitrophenyl]imino}diethanol

>  <STRUCTURE_SMILES>
C1(=C(C=CC(=C1)N(CCO)CCO)NC)[N+]([O-])=O

>  <STRUCTURE_Parent_SMILES>
C1(=C(C=CC(=C1)N(CCO)CCO)NC)[N+]([O-])=O

>  <STRUCTURE_InChI>
InChI=1/C11H17N3O4/c1-12-10-3-2-9(8-11(10)14(17)18)13(4-6-15)5-7-16/h2-3,8,12,15-16H,4-7H2,1H3

>  <STRUCTURE_InChIKey>
MWJSMPQOVHQYTE-UHFFFAOYAM

>  <StudyType>
Carcinogenicity

>  <Endpoint>
TD50; Tumor Target Sites

>  <Species>
rat; mouse

>  <ActivityOutcome_CPDBAS_Mutagenicity>
active

>  <TD50_Rat_mg>
702

>  <TD50_Rat_mmol>
2.75

>  <ActivityScore_CPDBAS_Rat>
21

>  <TargetSites_Rat_Male>
no positive results

>  <TargetSites_Rat_Female>
lung

>  <ActivityOutcome_CPDBAS_Rat>
active

>  <TD50_Mouse_mg>
86.3

>  <TD50_Mouse_mmol>
0.338

>  <ActivityScore_CPDBAS_Mouse>
34

>  <TD50_Mouse_Note>
TD50 is harmonic mean of more than one positive test; harmonic mean of TD50 includes a value for upper 99% confidence limit from study with 100% tumor incidence but no lifetable

>  <TargetSites_Mouse_Male>
liver; thyroid gland

>  <TargetSites_Mouse_Female>
liver

>  <ActivityOutcome_CPDBAS_Mouse>
active

>  <ActivityOutcome_CPDBAS_SingleCellCall>
active

>  <ActivityOutcome_CPDBAS_MultiCellCall>
active

>  <ActivityOutcome_CPDBAS_MultiCellCall_Details>
multisite active; multisex active; multispecies active

>  <Note_CPDBAS>
TD50_Mouse_Note added v5a

>  <NTP_TechnicalReport>
TR 271

>  <ChemicalPage_URL>
http://potency.berkeley.edu/chempages/HC%20BLUE%20NO.%201.html

$$$$



 18 18  0  0  0  0  0  0  0  0999 V2000
    2.3034   -3.3262    0.0000 C   0  0  0  0  0  0  0  0  0  0  0  0
    2.3034   -1.9994    0.0000 C   0  0  0  0  0  0  0  0  0  0  0  0
    3.4552   -1.3360    0.0000 C   0  0  0  0  0  0  0  0  0  0  0  0
    4.6069   -1.9994    0.0000 C   0  0  0  0  0  0  0  0  0  0  0  0
    4.6069   -3.3262    0.0000 C   0  0  0  0  0  0  0  0  0  0  0  0
    3.4552   -3.9896    0.0000 C   0  0  0  0  0  0  0  0  0  0  0  0
    5.7586   -3.9896    0.0000 N   0  0  0  0  0  0  0  0  0  0  0  0
    6.9103   -3.3262    0.0000 C   0  0  0  0  0  0  0  0  0  0  0  0
    8.0620   -3.9896    0.0000 C   0  0  0  0  0  0  0  0  0  0  0  0
    9.2137   -3.3262    0.0000 O   0  0  0  0  0  0  0  0  0  0  0  0
    5.7586   -5.3255    0.0000 C   0  0  0  0  0  0  0  0  0  0  0  0
    6.9103   -5.9889    0.0000 C   0  0  0  0  0  0  0  0  0  0  0  0
    8.0620   -5.3255    0.0000 O   0  0  0  0  0  0  0  0  0  0  0  0
    1.1517   -1.3360    0.0000 N   0  0  0  0  0  0  0  0  0  0  0  0
    1.1517    0.0000    0.0000 C   0  0  0  0  0  0  0  0  0  0  0  0
    1.1517   -3.9896    0.0000 N   0  3  0  0  0  0  0  0  0  0  0  0
    0.0000   -3.3262    0.0000 O   0  5  0  0  0  0  0  0  0  0  0  0
    1.1517   -5.3255    0.0000 O   0  0  0  0  0  0  0  0  0  0  0  0
  1  2  2  0  0  0  0
  1  6  1  0  0  0  0
  1 16  1  0  0  0  0
  2  3  1  0  0  0  0
  2 14  1  0  0  0  0
  3  4  2  0  0  0  0
  4  5  1  0  0  0  0
  5  6  2  0  0  0  0
  5  7  1  0  0  0  0
  7  8  1  0  0  0  0
  7 11  1  0  0  0  0
  8  9  1  0  0  0  0
  9 10  1  0  0  0  0
 11 12  1  0  0  0  0
 12 13  1  0  0  0  0
 14 15  1  0  0  0  0
 16 17  1  0  0  0  0
 16 18  2  0  0  0  0
M  END
>  <DSSTox_RID>
20192

>  <DSSTox_CID>
191

>  <DSSTox_Generic_SID>
20192

>  <DSSTox_FileID>
195_CPDBAS_v5d

>  <STRUCTURE_Formula>
C11H17N3O4

>  <STRUCTURE_MolecularWeight>
255.273

>  <STRUCTURE_ChemicalType>
defined organic

>  <STRUCTURE_TestedForm_DefinedOrganic>
parent

>  <STRUCTURE_Shown>
tested chemical

>  <TestSubstance_ChemicalName>
HC blue no. 1 (purified)

>  <TestSubstance_CASRN>
2784-94-3

>  <TestSubstance_Description>
single chemical compound

>  <STRUCTURE_ChemicalName_IUPAC>
2,2'-{[4-(methylamino)-3-nitrophenyl]imino}diethanol

>  <STRUCTURE_SMILES>
C1(=C(C=CC(=C1)N(CCO)CCO)NC)[N+]([O-])=O

>  <STRUCTURE_Parent_SMILES>
C1(=C(C=CC(=C1)N(CCO)CCO)NC)[N+]([O-])=O

>  <STRUCTURE_InChI>
InChI=1/C11H17N3O4/c1-12-10-3-2-9(8-11(10)14(17)18)13(4-6-15)5-7-16/h2-3,8,12,15-16H,4-7H2,1H3

>  <STRUCTURE_InChIKey>
MWJSMPQOVHQYTE-UHFFFAOYAM

>  <StudyType>
Carcinogenicity

>  <Endpoint>
TD50; Tumor Target Sites

>  <Species>
mouse

>  <ActivityOutcome_CPDBAS_Mutagenicity>
active

>  <TD50_Mouse_mg>
78.7

>  <TD50_Mouse_mmol>
0.308

>  <ActivityScore_CPDBAS_Mouse>
34

>  <TD50_Mouse_Note>
TD50 is harmonic mean of more than one positive test

>  <TargetSites_Mouse_Female>
liver

>  <ActivityOutcome_CPDBAS_Mouse>
active

>  <ActivityOutcome_CPDBAS_SingleCellCall>
active

>  <ChemicalPage_URL>
http://potency.berkeley.edu/chempages/HC%20BLUE%20NO.%201%20(PURIFIED).html

$$$$



 20 20  0  0  0  0  0  0  0  0999 V2000
    5.9907   -2.2984    0.0000 C   0  0  0  0  0  0  0  0  0  0  0  0
    6.6504   -3.4476    0.0000 C   0  0  0  0  0  0  0  0  0  0  0  0
    5.9907   -4.6074    0.0000 C   0  0  0  0  0  0  0  0  0  0  0  0
    4.6606   -4.6074    0.0000 C   0  0  0  0  0  0  0  0  0  0  0  0
    3.9903   -3.4476    0.0000 C   0  0  0  0  0  0  0  0  0  0  0  0
    4.6606   -2.2984    0.0000 C   0  0  0  0  0  0  0  0  0  0  0  0
    2.6602   -3.4476    0.0000 N   0  0  0  0  0  0  0  0  0  0  0  0
    1.9898   -4.6074    0.0000 C   0  0  0  0  0  0  0  0  0  0  0  0
    0.6597   -4.6074    0.0000 C   0  0  0  0  0  0  0  0  0  0  0  0
    0.0000   -5.7566    0.0000 O   0  0  0  0  0  0  0  0  0  0  0  0
    1.9898   -2.2984    0.0000 C   0  0  0  0  0  0  0  0  0  0  0  0
    0.6597   -2.2984    0.0000 C   0  0  0  0  0  0  0  0  0  0  0  0
    0.0000   -3.4476    0.0000 O   0  0  0  0  0  0  0  0  0  0  0  0
    7.9805   -3.4476    0.0000 N   0  0  0  0  0  0  0  0  0  0  0  0
    8.6509   -4.6074    0.0000 C   0  0  0  0  0  0  0  0  0  0  0  0
    9.9703   -4.6074    0.0000 C   0  0  0  0  0  0  0  0  0  0  0  0
   10.6407   -5.7566    0.0000 O   0  0  0  0  0  0  0  0  0  0  0  0
    6.6504   -1.1492    0.0000 N   0  3  0  0  0  0  0  0  0  0  0  0
    5.9907    0.0000    0.0000 O   0  5  0  0  0  0  0  0  0  0  0  0
    7.9805   -1.1492    0.0000 O   0  0  0  0  0  0  0  0  0  0  0  0
  1  2  2  0  0  0  0
  1  6  1  0  0  0  0
  1 18  1  0  0  0  0
  2  3  1  0  0  0  0
  2 14  1  0  0  0  0
  3  4  2  0  0  0  0
  4  5  1  0  0  0  0
  5  6  2  0  0  0  0
  5  7  1  0  0  0  0
  7  8  1  0  0  0  0
  7 11  1  0  0  0  0
  8  9  1  0  0  0  0
  9 10  1  0  0  0  0
 11 12  1  0  0  0  0
 12 13  1  0  0  0  0
 14 15  1  0  0  0  0
 15 16  1  0  0  0  0
 16 17  1  0  0  0  0
 18 19  1  0  0  0  0
 18 20  2  0  0  0  0
M  END
>  <DSSTox_RID>
20193

>  <DSSTox_CID>
193

>  <DSSTox_Generic_SID>
20193

>  <DSSTox_FileID>
196_CPDBAS_v5d

>  <STRUCTURE_Formula>
C12H19N3O5

>  <STRUCTURE_MolecularWeight>
285.2964

>  <STRUCTURE_ChemicalType>
defined organic

>  <STRUCTURE_TestedForm_DefinedOrganic>
parent

>  <STRUCTURE_Shown>
tested chemical

>  <TestSubstance_ChemicalName>
HC blue no. 2

>  <TestSubstance_CASRN>
33229-34-4

>  <TestSubstance_Description>
single chemical compound

>  <STRUCTURE_ChemicalName_IUPAC>
2,2'-({4-[(2-hydroxyethyl)amino]-3-nitrophenyl}imino)diethanol

>  <STRUCTURE_SMILES>
C1(=C(C=CC(=C1)N(CCO)CCO)NCCO)[N+]([O-])=O

>  <STRUCTURE_Parent_SMILES>
C1(=C(C=CC(=C1)N(CCO)CCO)NCCO)[N+]([O-])=O

>  <STRUCTURE_InChI>
InChI=1/C12H19N3O5/c16-6-3-13-11-2-1-10(9-12(11)15(19)20)14(4-7-17)5-8-18/h1-2,9,13,16-18H,3-8H2

>  <STRUCTURE_InChIKey>
MIWUTEVJIISHCP-UHFFFAOYAQ

>  <StudyType>
Carcinogenicity

>  <Endpoint>
TD50; Tumor Target Sites

>  <Species>
rat; mouse

>  <ActivityOutcome_CPDBAS_Mutagenicity>
active

>  <ActivityScore_CPDBAS_Rat>
0

>  <TD50_Rat_Note>
no positive results

>  <TargetSites_Rat_Male>
no positive results

>  <TargetSites_Rat_Female>
no positive results

>  <ActivityOutcome_CPDBAS_Rat>
inactive

>  <ActivityScore_CPDBAS_Mouse>
0

>  <TD50_Mouse_Note>
no positive results

>  <TargetSites_Mouse_Male>
no positive results

>  <TargetSites_Mouse_Female>
no positive results

>  <ActivityOutcome_CPDBAS_Mouse>
inactive

>  <ActivityOutcome_CPDBAS_SingleCellCall>
inactive

>  <ActivityOutcome_CPDBAS_MultiCellCall>
inactive

>  <ActivityOutcome_CPDBAS_MultiCellCall_Details>
multisex inactive; multispecies inactive

>  <NTP_TechnicalReport>
TR 293

>  <ChemicalPage_URL>
http://potency.berkeley.edu/chempages/HC%20BLUE%20NO.%202.html

$$$$



  4  3  0  0  0  0  0  0  0  0999 V2000
    0.0000    0.0000    0.0000 O   0  0  0  0  0  0  0  0  0  0  0  0
    1.1513   -0.6638    0.0000 C   0  0  0  0  0  0  0  0  0  0  0  0
    2.3061    0.0000    0.0000 C   0  0  0  0  0  0  0  0  0  0  0  0
    3.4575   -0.6638    0.0000 Br  0  0  0  0  0  0  0  0  0  0  0  0
  1  2  2  0  0  0  0
  2  3  1  0  0  0  0
  3  4  1  0  0  0  0
M  END
>  <DSSTox_RID>
20196

>  <DSSTox_CID>
196

>  <DSSTox_Generic_SID>
20196

>  <DSSTox_FileID>
200_CPDBAS_v5d

>  <STRUCTURE_Formula>
C2H3BrO

>  <STRUCTURE_MolecularWeight>
122.9491

>  <STRUCTURE_ChemicalType>
defined organic

>  <STRUCTURE_TestedForm_DefinedOrganic>
parent

>  <STRUCTURE_Shown>
tested chemical

>  <TestSubstance_ChemicalName>
Bromoacetaldehyde

>  <TestSubstance_CASRN>
17157-48-1

>  <TestSubstance_Description>
single chemical compound

>  <STRUCTURE_ChemicalName_IUPAC>
bromoacetaldehyde

>  <STRUCTURE_SMILES>
O=CCBr

>  <STRUCTURE_InChI>
InChI=1/C2H3BrO/c3-1-2-4/h2H,1H2

>  <STRUCTURE_InChIKey>
NMPVEAUIHMEAQP-UHFFFAOYAW

>  <StudyType>
Carcinogenicity

>  <Endpoint>
TD50; Tumor Target Sites

>  <Species>
mouse

>  <ActivityScore_CPDBAS_Mouse>
0

>  <TD50_Mouse_Note>
no positive results

>  <TargetSites_Mouse_Male>
no positive results

>  <TargetSites_Mouse_Female>
no positive results

>  <ActivityOutcome_CPDBAS_Mouse>
inactive

>  <ActivityOutcome_CPDBAS_SingleCellCall>
inactive

>  <ActivityOutcome_CPDBAS_MultiCellCall>
inactive

>  <ActivityOutcome_CPDBAS_MultiCellCall_Details>
multisex inactive

>  <ChemicalPage_URL>
http://potency.berkeley.edu/chempages/BROMOACETALDEHYDE.html

$$$$



  4  3  0  0  0  0  0  0  0  0999 V2000
    1.9950    0.0000    0.0000 Cl  0  0  0  0  0  0  0  0  0  0  0  0
    1.3292   -1.1518    0.0000 C   0  0  0  0  0  0  0  0  0  0  0  0
    1.9950   -2.3037    0.0000 Cl  0  0  0  0  0  0  0  0  0  0  0  0
    0.0000   -1.1518    0.0000 Br  0  0  0  0  0  0  0  0  0  0  0  0
  1  2  1  0  0  0  0
  2  3  1  0  0  0  0
  2  4  1  0  0  0  0
M  END
>  <DSSTox_RID>
20198

>  <DSSTox_CID>
198

>  <DSSTox_Generic_SID>
20198

>  <DSSTox_FileID>
202_CPDBAS_v5d

>  <STRUCTURE_Formula>
CHBrCl2

>  <STRUCTURE_MolecularWeight>
163.8286

>  <STRUCTURE_ChemicalType>
defined organic

>  <STRUCTURE_TestedForm_DefinedOrganic>
parent

>  <STRUCTURE_Shown>
tested chemical

>  <TestSubstance_ChemicalName>
Bromodichloromethane

>  <TestSubstance_CASRN>
75-27-4

>  <TestSubstance_Description>
single chemical compound

>  <STRUCTURE_ChemicalName_IUPAC>
bromo(dichloro)methane

>  <STRUCTURE_SMILES>
ClC(Cl)Br

>  <STRUCTURE_Parent_SMILES>
ClC(Cl)Br

>  <STRUCTURE_InChI>
InChI=1/CHBrCl2/c2-1(3)4/h1H

>  <STRUCTURE_InChIKey>
FMWLUWPQPKEARP-UHFFFAOYAR

>  <StudyType>
Carcinogenicity

>  <Endpoint>
TD50; Tumor Target Sites

>  <Species>
rat; mouse

>  <ActivityOutcome_CPDBAS_Mutagenicity>
active

>  <TD50_Rat_mg>
72.5

>  <TD50_Rat_mmol>
0.443

>  <ActivityScore_CPDBAS_Rat>
29

>  <TD50_Rat_Note>
TD50 is harmonic mean of more than one positive test; greater than ten-fold variation among TD50 values for positive results

>  <TargetSites_Rat_Male>
kidney; large intestine

>  <TargetSites_Rat_Female>
kidney; large intestine; liver

>  <ActivityOutcome_CPDBAS_Rat>
active

>  <TD50_Mouse_mg>
47.7

>  <TD50_Mouse_mmol>
0.291

>  <ActivityScore_CPDBAS_Mouse>
34

>  <TD50_Mouse_Note>
TD50 is harmonic mean of more than one positive test

>  <TargetSites_Mouse_Male>
kidney

>  <TargetSites_Mouse_Female>
liver

>  <ActivityOutcome_CPDBAS_Mouse>
active

>  <ActivityOutcome_CPDBAS_SingleCellCall>
active

>  <ActivityOutcome_CPDBAS_MultiCellCall>
active

>  <ActivityOutcome_CPDBAS_MultiCellCall_Details>
multisite active; multisex active; multispecies active

>  <NTP_TechnicalReport>
TR 321; additional results included in CPDB

>  <ChemicalPage_URL>
http://potency.berkeley.edu/chempages/BROMODICHLOROMETHANE.html

$$$$



  3  2  0  0  0  0  0  0  0  0999 V2000
    2.3030   -0.6656    0.0000 C   0  0  0  0  0  0  0  0  0  0  0  0
    1.1515    0.0000    0.0000 C   0  0  0  0  0  0  0  0  0  0  0  0
    0.0000   -0.6656    0.0000 Br  0  0  0  0  0  0  0  0  0  0  0  0
  1  2  1  0  0  0  0
  2  3  1  0  0  0  0
M  END
>  <DSSTox_RID>
20199

>  <DSSTox_CID>
199

>  <DSSTox_Generic_SID>
20199

>  <DSSTox_FileID>
203_CPDBAS_v5d

>  <STRUCTURE_Formula>
C2H5Br

>  <STRUCTURE_MolecularWeight>
108.9651

>  <STRUCTURE_ChemicalType>
defined organic

>  <STRUCTURE_TestedForm_DefinedOrganic>
parent

>  <STRUCTURE_Shown>
tested chemical

>  <TestSubstance_ChemicalName>
Bromoethane

>  <TestSubstance_CASRN>
74-96-4

>  <TestSubstance_Description>
single chemical compound

>  <STRUCTURE_ChemicalName_IUPAC>
bromoethane

>  <STRUCTURE_SMILES>
CCBr

>  <STRUCTURE_Parent_SMILES>
CCBr

>  <STRUCTURE_InChI>
InChI=1/C2H5Br/c1-2-3/h2H2,1H3

>  <STRUCTURE_InChIKey>
RDHPKYGYEGBMSE-UHFFFAOYAC

>  <StudyType>
Carcinogenicity

>  <Endpoint>
TD50; Tumor Target Sites

>  <Species>
rat; mouse

>  <ActivityOutcome_CPDBAS_Mutagenicity>
active

>  <TD50_Rat_mg>
149

>  <TD50_Rat_mmol>
1.37

>  <ActivityScore_CPDBAS_Rat>
24

>  <TD50_Rat_Note>
no positive results are statistically significant

>  <TargetSites_Rat_Male>
adrenal gland; lung; nervous system

>  <TargetSites_Rat_Female>
no positive results

>  <ActivityOutcome_CPDBAS_Rat>
active

>  <TD50_Mouse_mg>
535

>  <TD50_Mouse_mmol>
4.91

>  <ActivityScore_CPDBAS_Mouse>
20

>  <TargetSites_Mouse_Male>
no positive results

>  <TargetSites_Mouse_Female>
uterus

>  <ActivityOutcome_CPDBAS_Mouse>
active

>  <ActivityOutcome_CPDBAS_SingleCellCall>
active

>  <ActivityOutcome_CPDBAS_MultiCellCall>
active

>  <ActivityOutcome_CPDBAS_MultiCellCall_Details>
multisite active; multisex active; multispecies active

>  <NTP_TechnicalReport>
TR 363

>  <ChemicalPage_URL>
http://potency.berkeley.edu/chempages/BROMOETHANE.html

$$$$



  4  3  0  0  0  0  0  0  0  0999 V2000
    0.0000    0.0000    0.0000 O   0  0  0  0  0  0  0  0  0  0  0  0
    1.1513   -0.6638    0.0000 C   0  0  0  0  0  0  0  0  0  0  0  0
    2.3061    0.0000    0.0000 C   0  0  0  0  0  0  0  0  0  0  0  0
    3.4575   -0.6638    0.0000 Br  0  0  0  0  0  0  0  0  0  0  0  0
  1  2  1  0  0  0  0
  2  3  1  0  0  0  0
  3  4  1  0  0  0  0
M  END
>  <DSSTox_RID>
20200

>  <DSSTox_CID>
200

>  <DSSTox_Generic_SID>
20200

>  <DSSTox_FileID>
204_CPDBAS_v5d

>  <STRUCTURE_Formula>
C2H5BrO

>  <STRUCTURE_MolecularWeight>
124.9645

>  <STRUCTURE_ChemicalType>
defined organic

>  <STRUCTURE_TestedForm_DefinedOrganic>
parent

>  <STRUCTURE_Shown>
tested chemical

>  <TestSubstance_ChemicalName>
Bromoethanol

>  <TestSubstance_CASRN>
540-51-2

>  <TestSubstance_Description>
single chemical compound

>  <STRUCTURE_ChemicalName_IUPAC>
2-bromoethanol

>  <STRUCTURE_SMILES>
OCCBr

>  <STRUCTURE_Parent_SMILES>
OCCBr

>  <STRUCTURE_InChI>
InChI=1/C2H5BrO/c3-1-2-4/h4H,1-2H2

>  <STRUCTURE_InChIKey>
LDLCZOVUSADOIV-UHFFFAOYAU

>  <StudyType>
Carcinogenicity

>  <Endpoint>
TD50; Tumor Target Sites

>  <Species>
mouse

>  <ActivityOutcome_CPDBAS_Mutagenicity>
active

>  <TD50_Mouse_mg>
76.1

>  <TD50_Mouse_mmol>
0.609

>  <ActivityScore_CPDBAS_Mouse>
31

>  <TD50_Mouse_Note>
TD50 is harmonic mean of more than one positive test

>  <TargetSites_Mouse_Male>
stomach

>  <TargetSites_Mouse_Female>
stomach

>  <ActivityOutcome_CPDBAS_Mouse>
active

>  <ActivityOutcome_CPDBAS_SingleCellCall>
active

>  <ActivityOutcome_CPDBAS_MultiCellCall>
active

>  <ActivityOutcome_CPDBAS_MultiCellCall_Details>
multisex active

>  <ChemicalPage_URL>
http://potency.berkeley.edu/chempages/BROMOETHANOL.html

$$$$



 35 39  0  0  1  0  0  0  0  0999 V2000
    8.4349   -3.4385    0.0000 C   0  0  1  0  0  0  0  0  0  0  0  0
    7.1156   -3.8596    0.0000 C   0  0  2  0  0  0  0  0  0  0  0  0
    9.2349   -4.4911    0.0000 C   0  0  1  0  0  0  0  0  0  0  0  0
    9.2349   -2.3859    0.0000 O   0  0  0  0  0  0  0  0  0  0  0  0
    8.0560   -2.1894    0.0000 C   0  0  0  0  0  0  0  0  0  0  0  0
    7.1156   -5.1367    0.0000 C   0  0  1  0  0  0  0  0  0  0  0  0
    5.9508   -3.2140    0.0000 C   0  0  0  0  0  0  0  0  0  0  0  0
    7.1718   -2.8491    0.0000 C   0  0  0  0  0  0  0  0  0  0  0  0
    8.4349   -5.5437    0.0000 C   0  0  0  0  0  0  0  0  0  0  0  0
   10.5401   -4.0841    0.0000 O   0  0  0  0  0  0  0  0  0  0  0  0
   10.5401   -2.7929    0.0000 C   0  0  1  0  0  0  0  0  0  0  0  0
    9.0103   -1.2351    0.0000 C   0  0  0  0  0  0  0  0  0  0  0  0
    6.7507   -1.8666    0.0000 O   0  0  0  0  0  0  0  0  0  0  0  0
    5.9508   -5.8104    0.0000 C   0  0  1  0  0  0  0  0  0  0  0  0
    4.7438   -3.8596    0.0000 C   0  0  1  0  0  0  0  0  0  0  0  0
   11.6489   -2.0210    0.0000 C   0  0  0  0  0  0  0  0  0  0  0  0
    8.6314    0.0000    0.0000 O   0  0  0  0  0  0  0  0  0  0  0  0
    4.7438   -5.1367    0.0000 C   0  0  2  0  0  0  0  0  0  0  0  0
    5.9508   -7.1016    0.0000 C   0  0  0  0  0  0  0  0  0  0  0  0
    3.5648   -3.2140    0.0000 O   0  0  0  0  0  0  0  0  0  0  0  0
   12.9120   -2.5543    0.0000 C   0  0  0  0  0  0  0  0  0  0  0  0
    3.5648   -5.8104    0.0000 C   0  0  2  0  0  0  0  0  0  0  0  0
    4.7438   -7.7612    0.0000 C   0  0  0  0  0  0  0  0  0  0  0  0
   14.0348   -1.7824    0.0000 C   0  0  0  0  0  0  0  0  0  0  0  0
    3.5648   -7.1016    0.0000 C   0  0  0  0  0  0  0  0  0  0  0  0
    2.3719   -5.1367    0.0000 C   0  0  0  0  0  0  0  0  0  0  0  0
    3.5648   -4.4911    0.0000 C   0  0  0  0  0  0  0  0  0  0  0  0
    2.3719   -7.7612    0.0000 C   0  0  0  0  0  0  0  0  0  0  0  0
    1.1789   -5.8104    0.0000 C   0  0  0  0  0  0  0  0  0  0  0  0
    1.1789   -7.1016    0.0000 C   0  0  0  0  0  0  0  0  0  0  0  0
    0.0000   -7.7612    0.0000 O   0  0  0  0  0  0  0  0  0  0  0  0
    4.7297   -6.4560    0.0000 H   0  0  0  0  0  0  0  0  0  0  0  0
    7.1156   -6.4139    0.0000 H   0  0  0  0  0  0  0  0  0  0  0  0
    5.9508   -4.4911    0.0000 H   0  0  0  0  0  0  0  0  0  0  0  0
   11.7892   -3.3964    0.0000 H   0  0  0  0  0  0  0  0  0  0  0  0
  1  2  1  0  0  0  0
  1  3  1  0  0  0  0
  1  4  1  6  0  0  0
  1  5  1  1  0  0  0
  2  6  1  0  0  0  0
  2  7  1  0  0  0  0
  2  8  1  1  0  0  0
  3  9  1  0  0  0  0
  3 10  1  6  0  0  0
  4 11  1  0  0  0  0
  5 12  1  0  0  0  0
  5 13  2  0  0  0  0
  6 33  1  6  0  0  0
  6 14  1  0  0  0  0
  6  9  1  0  0  0  0
  7 15  1  0  0  0  0
 10 11  1  0  0  0  0
 11 35  1  1  0  0  0
 11 16  1  6  0  0  0
 12 17  1  0  0  0  0
 14 34  1  1  0  0  0
 14 18  1  0  0  0  0
 14 19  1  0  0  0  0
 15 20  1  1  0  0  0
 15 18  1  0  0  0  0
 16 21  1  0  0  0  0
 18 32  1  6  0  0  0
 18 22  1  0  0  0  0
 19 23  1  0  0  0  0
 21 24  1  0  0  0  0
 22 25  1  0  0  0  0
 22 26  1  0  0  0  0
 22 27  1  1  0  0  0
 23 25  1  0  0  0  0
 25 28  2  0  0  0  0
 26 29  2  0  0  0  0
 28 30  1  0  0  0  0
 29 30  1  0  0  0  0
 30 31  2  0  0  0  0
M  END
>  <DSSTox_RID>
20202

>  <DSSTox_CID>
202

>  <DSSTox_Generic_SID>
20202

>  <DSSTox_FileID>
206_CPDBAS_v5d

>  <STRUCTURE_Formula>
C25H34O6

>  <STRUCTURE_MolecularWeight>
430.54

>  <STRUCTURE_ChemicalType>
defined organic

>  <STRUCTURE_TestedForm_DefinedOrganic>
parent

>  <STRUCTURE_Shown>
tested chemical

>  <TestSubstance_ChemicalName>
Budesonide

>  <TestSubstance_CASRN>
51333-22-3

>  <TestSubstance_Description>
single chemical compound

>  <ChemicalNote>
stereochem, tautomers

>  <STRUCTURE_ChemicalName_IUPAC>
(4aR,4bS,5S,6aS,6bS,9aR,10aS,10bS)-5-hydroxy-6b-(hydroxyacetyl)-4a,6a-dimethyl-8-propyl-4a,4b,5,6,6a,6b,9a,10,10a,10b,11,12-dodecahydro-2H-naphtho[2',1':4,5]indeno[1,2-d][1,3]dioxol-2-one

>  <STRUCTURE_SMILES>
OCC(=O)[C@@]54OC(O[C@@H]5C[C@@H]1[C@]4(C)C[C@H](O)[C@@H]2[C@@]3(C)/C=C\C(=O)\C=C3\CC[C@@H]12)CCC

>  <STRUCTURE_Parent_SMILES>
OCC(=O)[C@@]54OC(O[C@@H]5C[C@@H]1[C@]4(C)C[C@H](O)[C@@H]2[C@@]3(C)/C=C\C(=O)\C=C3\CC[C@@H]12)CCC

>  <STRUCTURE_InChI>
InChI=1/C25H34O6/c1-4-5-21-30-20-11-17-16-7-6-14-10-15(27)8-9-23(14,2)22(16)18(28)12-24(17,3)25(20,31-21)19(29)13-26/h8-10,16-18,20-22,26,28H,4-7,11-13H2,1-3H3/t16-,17-,18-,20+,21+,22+,23-,24-,25+/m0/s1

>  <STRUCTURE_InChIKey>
VOVIALXJUBGFJZ-VXKMTNQYBX

>  <StudyType>
Carcinogenicity

>  <Endpoint>
TD50; Tumor Target Sites

>  <Species>
rat

>  <TD50_Rat_mg>
0.291

>  <TD50_Rat_mmol>
0.000676

>  <ActivityScore_CPDBAS_Rat>
58

>  <TargetSites_Rat_Male>
liver

>  <ActivityOutcome_CPDBAS_Rat>
active

>  <ActivityOutcome_CPDBAS_SingleCellCall>
active

>  <Note_CPDBAS>
structure modified v5b

>  <ChemicalPage_URL>
http://potency.berkeley.edu/chempages/BUDESONIDE.html

$$$$



  4  3  0  0  0  0  0  0  0  0999 V2000
    0.0000    0.0000    0.0000 C   0  0  0  0  0  0  0  0  0  0  0  0
    1.1513   -0.6638    0.0000 C   0  0  0  0  0  0  0  0  0  0  0  0
    2.3061    0.0000    0.0000 C   0  0  0  0  0  0  0  0  0  0  0  0
    3.4575   -0.6638    0.0000 C   0  0  0  0  0  0  0  0  0  0  0  0
  1  2  2  0  0  0  0
  2  3  1  0  0  0  0
  3  4  2  0  0  0  0
M  END
>  <DSSTox_RID>
20203

>  <DSSTox_CID>
203

>  <DSSTox_Generic_SID>
20203

>  <DSSTox_FileID>
207_CPDBAS_v5d

>  <STRUCTURE_Formula>
C4H6

>  <STRUCTURE_MolecularWeight>
54.0904

>  <STRUCTURE_ChemicalType>
defined organic

>  <STRUCTURE_TestedForm_DefinedOrganic>
parent

>  <STRUCTURE_Shown>
tested chemical

>  <TestSubstance_ChemicalName>
1,3-Butadiene

>  <TestSubstance_CASRN>
106-99-0

>  <TestSubstance_Description>
single chemical compound

>  <STRUCTURE_ChemicalName_IUPAC>
buta-1,3-diene

>  <STRUCTURE_SMILES>
C=CC=C

>  <STRUCTURE_Parent_SMILES>
C=CC=C

>  <STRUCTURE_InChI>
InChI=1/C4H6/c1-3-4-2/h3-4H,1-2H2

>  <STRUCTURE_InChIKey>
KAKZBPTYRLMSJV-UHFFFAOYAZ

>  <StudyType>
Carcinogenicity

>  <Endpoint>
TD50; Tumor Target Sites

>  <Species>
rat; mouse

>  <ActivityOutcome_CPDBAS_Mutagenicity>
active

>  <TD50_Rat_mg>
261

>  <TD50_Rat_mmol>
4.83

>  <ActivityScore_CPDBAS_Rat>
19

>  <TD50_Rat_Note>
TD50 is harmonic mean of more than one positive test; greater than ten-fold variation among TD50 values for positive results

>  <TargetSites_Rat_Male>
testes

>  <TargetSites_Rat_Female>
mammary gland

>  <ActivityOutcome_CPDBAS_Rat>
active

>  <TD50_Mouse_mg>
13.9

>  <TD50_Mouse_mmol>
0.257

>  <ActivityScore_CPDBAS_Mouse>
35

>  <TD50_Mouse_Note>
TD50 is harmonic mean of more than one positive test; greater than ten-fold variation among TD50 values for positive results

>  <TargetSites_Mouse_Male>
harderian gland; hematopoietic system; kidney; liver; lung; nervous system; preputial gland; stomach; vascular system

>  <TargetSites_Mouse_Female>
harderian gland; hematopoietic system; liver; lung; mammary gland; ovary; stomach; vascular system

>  <ActivityOutcome_CPDBAS_Mouse>
active

>  <ActivityOutcome_CPDBAS_SingleCellCall>
active

>  <ActivityOutcome_CPDBAS_MultiCellCall>
active

>  <ActivityOutcome_CPDBAS_MultiCellCall_Details>
multisite active; multisex active; multispecies active

>  <NTP_TechnicalReport>
TR 288; additional results included in CPDB

>  <ChemicalPage_URL>
http://potency.berkeley.edu/chempages/1,3-BUTADIENE.html

$$$$



  8  7  0  0  0  0  0  0  0  0999 V2000
    0.0000    0.0000    0.0000 O   0  0  0  0  0  0  0  0  0  0  0  0
    3.4639   -0.6621    0.0000 O   0  0  0  0  0  0  0  0  0  0  0  0
    1.1546   -0.6621    0.0000 C   0  0  0  0  0  0  0  0  0  0  0  0
    2.3092    0.0000    0.0000 C   0  0  0  0  0  0  0  0  0  0  0  0
    4.5943    0.0000    0.0000 C   0  0  0  0  0  0  0  0  0  0  0  0
    5.7650   -0.6621    0.0000 C   0  0  0  0  0  0  0  0  0  0  0  0
    6.9035    0.0000    0.0000 C   0  0  0  0  0  0  0  0  0  0  0  0
    8.0743   -0.6621    0.0000 C   0  0  0  0  0  0  0  0  0  0  0  0
  1  3  1  0  0  0  0
  2  4  1  0  0  0  0
  2  5  1  0  0  0  0
  3  4  1  0  0  0  0
  5  6  1  0  0  0  0
  6  7  1  0  0  0  0
  7  8  1  0  0  0  0
M  END
>  <DSSTox_RID>
40775

>  <DSSTox_CID>
4097

>  <DSSTox_Generic_SID>
24097

>  <DSSTox_FileID>
208_CPDBAS_v5d

>  <STRUCTURE_Formula>
C6H14O2

>  <STRUCTURE_MolecularWeight>
118.1742

>  <STRUCTURE_ChemicalType>
defined organic

>  <STRUCTURE_TestedForm_DefinedOrganic>
parent

>  <STRUCTURE_Shown>
tested chemical

>  <TestSubstance_ChemicalName>
2-Butoxyethanol

>  <TestSubstance_CASRN>
111-76-2

>  <TestSubstance_Description>
single chemical compound

>  <STRUCTURE_ChemicalName_IUPAC>
2-butoxyethanol

>  <STRUCTURE_SMILES>
CCCCOCCO

>  <STRUCTURE_Parent_SMILES>
CCCCOCCO

>  <STRUCTURE_InChI>
InChI=1/C6H14O2/c1-2-3-5-8-6-4-7/h7H,2-6H2,1H3

>  <STRUCTURE_InChIKey>
POAOYUHQDCAZBD-UHFFFAOYAB

>  <StudyType>
Carcinogenicity

>  <Endpoint>
TD50; Tumor Target Sites

>  <Species>
rat; mouse

>  <ActivityOutcome_CPDBAS_Mutagenicity>
inactive

>  <ActivityScore_CPDBAS_Rat>
0

>  <TD50_Rat_Note>
no positive results

>  <TargetSites_Rat_Male>
no positive results

>  <TargetSites_Rat_Female>
no positive results

>  <ActivityOutcome_CPDBAS_Rat>
inactive

>  <TD50_Mouse_mg>
1710

>  <TD50_Mouse_mmol>
14.5

>  <ActivityScore_CPDBAS_Mouse>
15

>  <TD50_Mouse_Note>
TD50 is harmonic mean of more than one positive test

>  <TargetSites_Mouse_Male>
vascular system

>  <TargetSites_Mouse_Female>
stomach

>  <ActivityOutcome_CPDBAS_Mouse>
active

>  <ActivityOutcome_CPDBAS_SingleCellCall>
active

>  <ActivityOutcome_CPDBAS_MultiCellCall>
active

>  <ActivityOutcome_CPDBAS_MultiCellCall_Details>
multisite active; multisex active

>  <Note_CPDBAS>
Rat added v5a; Mouse added v5a; Mutagenicity_SAL_CPDB added v5a; chemical added v5a

>  <ChemicalPage_URL>
http://potency.berkeley.edu/chempages/2-BUTOXYETHANOL.html

$$$$



  5  4  0  0  0  0  0  0  0  0999 V2000
    1.3300   -1.3300    0.0000 C   0  0  0  0  0  0  0  0  0  0  0  0
    1.3300   -2.6600    0.0000 C   0  0  0  0  0  0  0  0  0  0  0  0
    0.0000   -1.3300    0.0000 C   0  0  0  0  0  0  0  0  0  0  0  0
    1.3300    0.0000    0.0000 C   0  0  0  0  0  0  0  0  0  0  0  0
    2.6600   -1.3300    0.0000 O   0  0  0  0  0  0  0  0  0  0  0  0
  1  2  1  0  0  0  0
  1  3  1  0  0  0  0
  1  4  1  0  0  0  0
  1  5  1  0  0  0  0
M  END
>  <DSSTox_RID>
20204

>  <DSSTox_CID>
204

>  <DSSTox_Generic_SID>
20204

>  <DSSTox_FileID>
209_CPDBAS_v5d

>  <STRUCTURE_Formula>
C4H10O

>  <STRUCTURE_MolecularWeight>
74.1216

>  <STRUCTURE_ChemicalType>
defined organic

>  <STRUCTURE_TestedForm_DefinedOrganic>
parent

>  <STRUCTURE_Shown>
tested chemical

>  <TestSubstance_ChemicalName>
tert-Butyl alcohol

>  <TestSubstance_CASRN>
75-65-0

>  <TestSubstance_Description>
single chemical compound

>  <STRUCTURE_ChemicalName_IUPAC>
2-methylpropan-2-ol

>  <STRUCTURE_SMILES>
CC(C)(C)O

>  <STRUCTURE_Parent_SMILES>
CC(C)(C)O

>  <STRUCTURE_InChI>
InChI=1/C4H10O/c1-4(2,3)5/h5H,1-3H3

>  <STRUCTURE_InChIKey>
DKGAVHZHDRPRBM-UHFFFAOYAF

>  <StudyType>
Carcinogenicity

>  <Endpoint>
TD50; Tumor Target Sites

>  <Species>
rat; mouse

>  <ActivityOutcome_CPDBAS_Mutagenicity>
inactive

>  <TD50_Rat_mg>
64.6

>  <TD50_Rat_mmol>
0.872

>  <ActivityScore_CPDBAS_Rat>
26

>  <TargetSites_Rat_Male>
kidney

>  <TargetSites_Rat_Female>
no positive results

>  <ActivityOutcome_CPDBAS_Rat>
active

>  <TD50_Mouse_mg>
21900

>  <TD50_Mouse_mmol>
295

>  <ActivityScore_CPDBAS_Mouse>
0

>  <TargetSites_Mouse_Male>
no positive results

>  <TargetSites_Mouse_Female>
thyroid gland

>  <ActivityOutcome_CPDBAS_Mouse>
active

>  <ActivityOutcome_CPDBAS_SingleCellCall>
active

>  <ActivityOutcome_CPDBAS_MultiCellCall>
active

>  <ActivityOutcome_CPDBAS_MultiCellCall_Details>
multisite active; multisex active; multispecies active

>  <ChemicalPage_URL>
http://potency.berkeley.edu/chempages/tert-BUTYL%20ALCOHOL.html

$$$$



 23 24  0  0  0  0  0  0  0  0999 V2000
    5.3142   -2.2980    0.0000 C   0  0  0  0  0  0  0  0  0  0  0  0
    3.9856   -2.2980    0.0000 C   0  0  0  0  0  0  0  0  0  0  0  0
    3.3273   -1.1490    0.0000 C   0  0  0  0  0  0  0  0  0  0  0  0
    3.9856    0.0000    0.0000 C   0  0  0  0  0  0  0  0  0  0  0  0
    5.3142    0.0000    0.0000 C   0  0  0  0  0  0  0  0  0  0  0  0
    5.9844   -1.1490    0.0000 C   0  0  0  0  0  0  0  0  0  0  0  0
    3.3273   -3.4470    0.0000 C   0  0  0  0  0  0  0  0  0  0  0  0
    3.9856   -4.6080    0.0000 O   0  0  0  0  0  0  0  0  0  0  0  0
    3.3273   -5.7570    0.0000 C   0  0  0  0  0  0  0  0  0  0  0  0
    1.9988   -5.7570    0.0000 C   0  0  0  0  0  0  0  0  0  0  0  0
    1.3285   -6.9060    0.0000 C   0  0  0  0  0  0  0  0  0  0  0  0
    0.0000   -6.9060    0.0000 C   0  0  0  0  0  0  0  0  0  0  0  0
    1.9988   -3.4470    0.0000 O   0  0  0  0  0  0  0  0  0  0  0  0
    5.9844   -3.4470    0.0000 C   0  0  0  0  0  0  0  0  0  0  0  0
    7.3130   -3.4470    0.0000 O   0  0  0  0  0  0  0  0  0  0  0  0
    7.9832   -4.6080    0.0000 C   0  0  0  0  0  0  0  0  0  0  0  0
    9.3118   -4.6080    0.0000 C   0  0  0  0  0  0  0  0  0  0  0  0
    9.9701   -3.4470    0.0000 C   0  0  0  0  0  0  0  0  0  0  0  0
   11.2986   -3.4470    0.0000 C   0  0  0  0  0  0  0  0  0  0  0  0
   11.9689   -4.6080    0.0000 C   0  0  0  0  0  0  0  0  0  0  0  0
   11.2986   -5.7570    0.0000 C   0  0  0  0  0  0  0  0  0  0  0  0
    9.9701   -5.7570    0.0000 C   0  0  0  0  0  0  0  0  0  0  0  0
    5.3142   -4.6080    0.0000 O   0  0  0  0  0  0  0  0  0  0  0  0
  1  2  2  0  0  0  0
  1  6  1  0  0  0  0
  1 14  1  0  0  0  0
  2  3  1  0  0  0  0
  2  7  1  0  0  0  0
  3  4  2  0  0  0  0
  4  5  1  0  0  0  0
  5  6  2  0  0  0  0
  7  8  1  0  0  0  0
  7 13  2  0  0  0  0
  8  9  1  0  0  0  0
  9 10  1  0  0  0  0
 10 11  1  0  0  0  0
 11 12  1  0  0  0  0
 14 15  1  0  0  0  0
 14 23  2  0  0  0  0
 15 16  1  0  0  0  0
 16 17  1  0  0  0  0
 17 18  2  0  0  0  0
 17 22  1  0  0  0  0
 18 19  1  0  0  0  0
 19 20  2  0  0  0  0
 20 21  1  0  0  0  0
 21 22  2  0  0  0  0
M  END
>  <DSSTox_RID>
20205

>  <DSSTox_CID>
205

>  <DSSTox_Generic_SID>
20205

>  <DSSTox_FileID>
210_CPDBAS_v5d

>  <STRUCTURE_Formula>
C19H20O4

>  <STRUCTURE_MolecularWeight>
312.3597

>  <STRUCTURE_ChemicalType>
defined organic

>  <STRUCTURE_TestedForm_DefinedOrganic>
parent

>  <STRUCTURE_Shown>
tested chemical

>  <TestSubstance_ChemicalName>
Butyl benzyl phthalate

>  <TestSubstance_CASRN>
85-68-7

>  <TestSubstance_Description>
single chemical compound

>  <STRUCTURE_ChemicalName_IUPAC>
benzyl butyl phthalate

>  <STRUCTURE_SMILES>
C1(=C(C=CC=C1)C(OCCCC)=O)C(OCC2=CC=CC=C2)=O

>  <STRUCTURE_Parent_SMILES>
C1(=C(C=CC=C1)C(OCCCC)=O)C(OCC2=CC=CC=C2)=O

>  <STRUCTURE_InChI>
InChI=1/C19H20O4/c1-2-3-13-22-18(20)16-11-7-8-12-17(16)19(21)23-14-15-9-5-4-6-10-15/h4-12H,2-3,13-14H2,1H3

>  <STRUCTURE_InChIKey>
IRIAEXORFWYRCZ-UHFFFAOYAR

>  <StudyType>
Carcinogenicity

>  <Endpoint>
TD50; Tumor Target Sites

>  <Species>
rat; mouse

>  <ActivityOutcome_CPDBAS_Mutagenicity>
inactive

>  <TD50_Rat_mg>
1040

>  <TD50_Rat_mmol>
3.33

>  <ActivityScore_CPDBAS_Rat>
20

>  <TargetSites_Rat_Male>
pancreas

>  <TargetSites_Rat_Female>
no positive results - CPDB evaluation based on NCI Technical Report

>  <ActivityOutcome_CPDBAS_Rat>
active

>  <ActivityScore_CPDBAS_Mouse>
0

>  <TD50_Mouse_Note>
no positive results

>  <TargetSites_Mouse_Male>
no positive results

>  <TargetSites_Mouse_Female>
no positive results

>  <ActivityOutcome_CPDBAS_Mouse>
inactive

>  <ActivityOutcome_CPDBAS_SingleCellCall>
active

>  <Note_CPDBAS>
TD50_Rat modified v2a; TargetSites_Rat_Male modified v2a; TargetSites_Rat_Female modified v5d; NTP_TechnicalReport added v5a

>  <NTP_TechnicalReport>
TR 458; TR 213; NTP-assigned level of evidence of carcinogenicity is "positive" in female rat; noting that "these experiments were particularly difficult to evaluate".

>  <ChemicalPage_URL>
http://potency.berkeley.edu/chempages/BUTYL%20BENZYL%20PHTHALATE.html

$$$$



  5  4  0  0  0  0  0  0  0  0999 V2000
    0.0000   -0.6638    0.0000 C   0  0  0  0  0  0  0  0  0  0  0  0
    1.1525    0.0000    0.0000 C   0  0  0  0  0  0  0  0  0  0  0  0
    2.3050   -0.6638    0.0000 C   0  0  0  0  0  0  0  0  0  0  0  0
    3.4575    0.0000    0.0000 C   0  0  0  0  0  0  0  0  0  0  0  0
    4.6099   -0.6638    0.0000 Cl  0  0  0  0  0  0  0  0  0  0  0  0
  1  2  1  0  0  0  0
  2  3  1  0  0  0  0
  3  4  1  0  0  0  0
  4  5  1  0  0  0  0
M  END
>  <DSSTox_RID>
20206

>  <DSSTox_CID>
206

>  <DSSTox_Generic_SID>
20206

>  <DSSTox_FileID>
211_CPDBAS_v5d

>  <STRUCTURE_Formula>
C4H9Cl

>  <STRUCTURE_MolecularWeight>
92.5673

>  <STRUCTURE_ChemicalType>
defined organic

>  <STRUCTURE_TestedForm_DefinedOrganic>
parent

>  <STRUCTURE_Shown>
tested chemical

>  <TestSubstance_ChemicalName>
n-Butyl chloride

>  <TestSubstance_CASRN>
109-69-3

>  <TestSubstance_Description>
single chemical compound

>  <STRUCTURE_ChemicalName_IUPAC>
1-chlorobutane

>  <STRUCTURE_SMILES>
CCCCCl

>  <STRUCTURE_Parent_SMILES>
CCCCCl

>  <STRUCTURE_InChI>
InChI=1/C4H9Cl/c1-2-3-4-5/h2-4H2,1H3

>  <STRUCTURE_InChIKey>
VFWCMGCRMGJXDK-UHFFFAOYAR

>  <StudyType>
Carcinogenicity

>  <Endpoint>
TD50; Tumor Target Sites

>  <Species>
rat; mouse

>  <ActivityOutcome_CPDBAS_Mutagenicity>
inactive

>  <ActivityScore_CPDBAS_Rat>
0

>  <TD50_Rat_Note>
no positive results

>  <TargetSites_Rat_Male>
no positive results

>  <TargetSites_Rat_Female>
no positive results

>  <ActivityOutcome_CPDBAS_Rat>
inactive

>  <ActivityScore_CPDBAS_Mouse>
0

>  <TD50_Mouse_Note>
no positive results

>  <TargetSites_Mouse_Male>
no positive results

>  <TargetSites_Mouse_Female>
no positive results

>  <ActivityOutcome_CPDBAS_Mouse>
inactive

>  <ActivityOutcome_CPDBAS_SingleCellCall>
inactive

>  <ActivityOutcome_CPDBAS_MultiCellCall>
inactive

>  <ActivityOutcome_CPDBAS_MultiCellCall_Details>
multisex inactive; multispecies inactive

>  <ChemicalPage_URL>
http://potency.berkeley.edu/chempages/n-BUTYL%20CHLORIDE.html

$$$$



 17 17  0  0  0  0  0  0  0  0999 V2000
    1.9970   -1.1540    0.0000 O   0  0  0  0  0  0  0  0  0  0  0  0
    2.6604   -2.3010    0.0000 C   0  0  0  0  0  0  0  0  0  0  0  0
    3.9871   -2.3010    0.0000 C   0  0  0  0  0  0  0  0  0  0  0  0
    4.6574   -3.4550    0.0000 C   0  0  0  0  0  0  0  0  0  0  0  0
    3.9871   -4.6090    0.0000 C   0  0  0  0  0  0  0  0  0  0  0  0
    2.6604   -4.6090    0.0000 C   0  0  0  0  0  0  0  0  0  0  0  0
    1.9970   -3.4550    0.0000 C   0  0  0  0  0  0  0  0  0  0  0  0
    0.6634   -3.4550    0.0000 C   0  0  3  0  0  0  0  0  0  0  0  0
    0.0000   -4.6090    0.0000 C   0  0  0  0  0  0  0  0  0  0  0  0
    0.6634   -5.7560    0.0000 C   0  0  0  0  0  0  0  0  0  0  0  0
    0.0000   -2.3010    0.0000 C   0  0  0  0  0  0  0  0  0  0  0  0
    4.6574   -5.7560    0.0000 N   0  3  0  0  0  0  0  0  0  0  0  0
    3.9871   -6.9100    0.0000 O   0  0  0  0  0  0  0  0  0  0  0  0
    5.9841   -5.7560    0.0000 O   0  5  0  0  0  0  0  0  0  0  0  0
    4.6574   -1.1540    0.0000 N   0  3  0  0  0  0  0  0  0  0  0  0
    3.9871    0.0000    0.0000 O   0  0  0  0  0  0  0  0  0  0  0  0
    5.9841   -1.1540    0.0000 O   0  5  0  0  0  0  0  0  0  0  0  0
  1  2  1  0  0  0  0
  2  3  2  0  0  0  0
  2  7  1  0  0  0  0
  3  4  1  0  0  0  0
  3 15  1  0  0  0  0
  4  5  2  0  0  0  0
  5  6  1  0  0  0  0
  5 12  1  0  0  0  0
  6  7  2  0  0  0  0
  7  8  1  0  0  0  0
  8  9  1  0  0  0  0
  8 11  1  0  0  0  0
  9 10  1  0  0  0  0
 12 13  2  0  0  0  0
 12 14  1  0  0  0  0
 15 16  2  0  0  0  0
 15 17  1  0  0  0  0
M  END
>  <DSSTox_RID>
20207

>  <DSSTox_CID>
207

>  <DSSTox_Generic_SID>
20207

>  <DSSTox_FileID>
212_CPDBAS_v5d

>  <STRUCTURE_Formula>
C10H12N2O5

>  <STRUCTURE_MolecularWeight>
240.2127

>  <STRUCTURE_ChemicalType>
defined organic

>  <STRUCTURE_TestedForm_DefinedOrganic>
parent

>  <STRUCTURE_Shown>
tested chemical

>  <TestSubstance_ChemicalName>
2-sec-Butyl-4,6-dinitrophenol

>  <TestSubstance_CASRN>
88-85-7

>  <TestSubstance_Description>
single chemical compound

>  <STRUCTURE_ChemicalName_IUPAC>
2-(1-methylpropyl)-4,6-dinitrophenol

>  <STRUCTURE_SMILES>
OC1=C(C=C(C=C1C(CC)C)[N+](=O)[O-])[N+](=O)[O-]

>  <STRUCTURE_Parent_SMILES>
OC1=C(C=C(C=C1C(CC)C)[N+](=O)[O-])[N+](=O)[O-]

>  <STRUCTURE_InChI>
InChI=1/C10H12N2O5/c1-3-6(2)8-4-7(11(14)15)5-9(10(8)13)12(16)17/h4-6,13H,3H2,1-2H3

>  <STRUCTURE_InChIKey>
OWZPCEFYPSAJFR-UHFFFAOYAU

>  <StudyType>
Carcinogenicity

>  <Endpoint>
TD50; Tumor Target Sites

>  <Species>
mouse

>  <ActivityOutcome_CPDBAS_Mutagenicity>
inactive

>  <ActivityScore_CPDBAS_Mouse>
0

>  <TD50_Mouse_Note>
no positive results

>  <TargetSites_Mouse_Male>
no positive results

>  <TargetSites_Mouse_Female>
no positive results

>  <ActivityOutcome_CPDBAS_Mouse>
inactive

>  <ActivityOutcome_CPDBAS_SingleCellCall>
inactive

>  <ActivityOutcome_CPDBAS_MultiCellCall>
inactive

>  <ActivityOutcome_CPDBAS_MultiCellCall_Details>
multisex inactive

>  <ChemicalPage_URL>
http://potency.berkeley.edu/chempages/2-sec-BUTYL-4,6-DINITROPHENOL.html

$$$$



  8  7  0  0  0  0  0  0  0  0999 V2000
    1.9926   -1.1549    0.0000 N   0  0  0  0  0  0  0  0  0  0  0  0
    2.6569    0.0000    0.0000 N   0  0  0  0  0  0  0  0  0  0  0  0
    2.6569   -2.3038    0.0000 C   0  0  0  0  0  0  0  0  0  0  0  0
    3.9913   -2.3038    0.0000 C   0  0  0  0  0  0  0  0  0  0  0  0
    4.6555   -1.1549    0.0000 C   0  0  0  0  0  0  0  0  0  0  0  0
    5.9839   -1.1549    0.0000 C   0  0  0  0  0  0  0  0  0  0  0  0
    0.6642   -1.1549    0.0000 C   0  0  0  0  0  0  0  0  0  0  0  0
    0.0000    0.0000    0.0000 O   0  0  0  0  0  0  0  0  0  0  0  0
  1  2  1  0  0  0  0
  1  3  1  0  0  0  0
  1  7  1  0  0  0  0
  3  4  1  0  0  0  0
  4  5  1  0  0  0  0
  5  6  1  0  0  0  0
  7  8  2  0  0  0  0
M  END
>  <DSSTox_RID>
20208

>  <DSSTox_CID>
208

>  <DSSTox_Generic_SID>
20208

>  <DSSTox_FileID>
213_CPDBAS_v5d

>  <STRUCTURE_Formula>
C5H12N2O

>  <STRUCTURE_MolecularWeight>
116.1626

>  <STRUCTURE_ChemicalType>
defined organic

>  <STRUCTURE_TestedForm_DefinedOrganic>
parent

>  <STRUCTURE_Shown>
tested chemical

>  <TestSubstance_ChemicalName>
N-n-Butyl-N-formylhydrazine

>  <TestSubstance_CASRN>
16120-70-0

>  <TestSubstance_Description>
single chemical compound

>  <STRUCTURE_ChemicalName_IUPAC>
N-butylformic hydrazide

>  <STRUCTURE_SMILES>
N(N)(CCCC)C=O

>  <STRUCTURE_Parent_SMILES>
N(N)(CCCC)C=O

>  <STRUCTURE_InChI>
InChI=1/C5H12N2O/c1-2-3-4-7(6)5-8/h5H,2-4,6H2,1H3

>  <STRUCTURE_InChIKey>
IUQLCQSKKGSTBR-UHFFFAOYAZ

>  <StudyType>
Carcinogenicity

>  <Endpoint>
TD50; Tumor Target Sites

>  <Species>
mouse

>  <TD50_Mouse_mg>
19.3

>  <TD50_Mouse_mmol>
0.166

>  <ActivityScore_CPDBAS_Mouse>
37

>  <TD50_Mouse_Note>
TD50 is harmonic mean of more than one positive test

>  <TargetSites_Mouse_Male>
lung; preputial gland

>  <TargetSites_Mouse_Female>
clitoral gland; lung

>  <ActivityOutcome_CPDBAS_Mouse>
active

>  <ActivityOutcome_CPDBAS_SingleCellCall>
active

>  <ActivityOutcome_CPDBAS_MultiCellCall>
active

>  <ActivityOutcome_CPDBAS_MultiCellCall_Details>
multisite active; multisex active

>  <ChemicalPage_URL>
http://potency.berkeley.edu/chempages/N-n-BUTYL-N-FORMYLHYDRAZINE.html

$$$$



 14 14  0  0  0  0  0  0  0  0999 V2000
    3.9910    0.0000    0.0000 O   0  0  0  0  0  0  0  0  0  0  0  0
    4.6595   -1.1574    0.0000 C   0  0  0  0  0  0  0  0  0  0  0  0
    5.9865   -1.1574    0.0000 C   0  0  0  0  0  0  0  0  0  0  0  0
    6.6549    0.0000    0.0000 C   0  0  0  0  0  0  0  0  0  0  0  0
    7.9819    0.0000    0.0000 C   0  0  0  0  0  0  0  0  0  0  0  0
    8.6504   -1.1574    0.0000 C   0  0  0  0  0  0  0  0  0  0  0  0
    7.9819   -2.3048    0.0000 C   0  0  0  0  0  0  0  0  0  0  0  0
    6.6549   -2.3048    0.0000 C   0  0  0  0  0  0  0  0  0  0  0  0
    9.9774   -1.1574    0.0000 O   0  0  0  0  0  0  0  0  0  0  0  0
    3.9910   -2.3048    0.0000 O   0  0  0  0  0  0  0  0  0  0  0  0
    2.6640   -2.3048    0.0000 C   0  0  0  0  0  0  0  0  0  0  0  0
    1.9955   -1.1574    0.0000 C   0  0  0  0  0  0  0  0  0  0  0  0
    0.6685   -1.1574    0.0000 C   0  0  0  0  0  0  0  0  0  0  0  0
    0.0000    0.0000    0.0000 C   0  0  0  0  0  0  0  0  0  0  0  0
  1  2  2  0  0  0  0
  2  3  1  0  0  0  0
  2 10  1  0  0  0  0
  3  4  2  0  0  0  0
  3  8  1  0  0  0  0
  4  5  1  0  0  0  0
  5  6  2  0  0  0  0
  6  7  1  0  0  0  0
  6  9  1  0  0  0  0
  7  8  2  0  0  0  0
 10 11  1  0  0  0  0
 11 12  1  0  0  0  0
 12 13  1  0  0  0  0
 13 14  1  0  0  0  0
M  END
>  <DSSTox_RID>
20209

>  <DSSTox_CID>
209

>  <DSSTox_Generic_SID>
20209

>  <DSSTox_FileID>
214_CPDBAS_v5d

>  <STRUCTURE_Formula>
C11H14O3

>  <STRUCTURE_MolecularWeight>
194.2271

>  <STRUCTURE_ChemicalType>
defined organic

>  <STRUCTURE_TestedForm_DefinedOrganic>
parent

>  <STRUCTURE_Shown>
tested chemical

>  <TestSubstance_ChemicalName>
Butyl p-hydroxybenzoate

>  <TestSubstance_CASRN>
94-26-8

>  <TestSubstance_Description>
single chemical compound

>  <STRUCTURE_ChemicalName_IUPAC>
butyl 4-hydroxybenzoate

>  <STRUCTURE_SMILES>
C(C1=CC=C(C=C1)O)(=O)OCCCC

>  <STRUCTURE_Parent_SMILES>
C(C1=CC=C(C=C1)O)(=O)OCCCC

>  <STRUCTURE_InChI>
InChI=1/C11H14O3/c1-2-3-8-14-11(13)9-4-6-10(12)7-5-9/h4-7,12H,2-3,8H2,1H3

>  <STRUCTURE_InChIKey>
QFOHBWFCKVYLES-UHFFFAOYAN

>  <StudyType>
Carcinogenicity

>  <Endpoint>
TD50; Tumor Target Sites

>  <Species>
mouse

>  <ActivityOutcome_CPDBAS_Mutagenicity>
inactive

>  <ActivityScore_CPDBAS_Mouse>
0

>  <TD50_Mouse_Note>
no positive results

>  <TargetSites_Mouse_Male>
no positive results

>  <TargetSites_Mouse_Female>
no positive results

>  <ActivityOutcome_CPDBAS_Mouse>
inactive

>  <ActivityOutcome_CPDBAS_SingleCellCall>
inactive

>  <ActivityOutcome_CPDBAS_MultiCellCall>
inactive

>  <ActivityOutcome_CPDBAS_MultiCellCall_Details>
multisex inactive

>  <Note_CPDBAS>
Mutagenicity_SAL_CPDB added v3a

>  <ChemicalPage_URL>
http://potency.berkeley.edu/chempages/BUTYL%20p-HYDROXYBENZOATE.html

$$$$



 12 11  0  0  0  0  0  0  0  0999 V2000
    1.9982   -5.7596    0.0000 N   0  0  0  0  0  0  0  0  0  0  0  0
    2.6620   -4.6118    0.0000 C   0  0  0  0  0  0  0  0  0  0  0  0
    1.9982   -3.4571    0.0000 C   0  0  0  0  0  0  0  0  0  0  0  0
    2.6620   -2.3025    0.0000 C   0  0  0  0  0  0  0  0  0  0  0  0
    1.9982   -1.1547    0.0000 C   0  0  0  0  0  0  0  0  0  0  0  0
    2.6620    0.0000    0.0000 O   0  0  0  0  0  0  0  0  0  0  0  0
    2.6620   -6.9143    0.0000 C   0  0  0  0  0  0  0  0  0  0  0  0
    3.9895   -6.9143    0.0000 C   0  0  0  0  0  0  0  0  0  0  0  0
    4.6602   -5.7596    0.0000 C   0  0  0  0  0  0  0  0  0  0  0  0
    5.9878   -5.7596    0.0000 C   0  0  0  0  0  0  0  0  0  0  0  0
    0.6638   -5.7596    0.0000 N   0  0  0  0  0  0  0  0  0  0  0  0
    0.0000   -4.6118    0.0000 O   0  0  0  0  0  0  0  0  0  0  0  0
  1  2  1  0  0  0  0
  1  7  1  0  0  0  0
  1 11  1  0  0  0  0
  2  3  1  0  0  0  0
  3  4  1  0  0  0  0
  4  5  1  0  0  0  0
  5  6  1  0  0  0  0
  7  8  1  0  0  0  0
  8  9  1  0  0  0  0
  9 10  1  0  0  0  0
 11 12  2  0  0  0  0
M  END
>  <DSSTox_RID>
20210

>  <DSSTox_CID>
210

>  <DSSTox_Generic_SID>
20210

>  <DSSTox_FileID>
215_CPDBAS_v5d

>  <STRUCTURE_Formula>
C8H18N2O2

>  <STRUCTURE_MolecularWeight>
174.2424

>  <STRUCTURE_ChemicalType>
defined organic

>  <STRUCTURE_TestedForm_DefinedOrganic>
parent

>  <STRUCTURE_Shown>
tested chemical

>  <TestSubstance_ChemicalName>
n-Butyl-N-(4-hydroxybutyl)nitrosamine

>  <TestSubstance_CASRN>
3817-11-6

>  <TestSubstance_Description>
single chemical compound

>  <STRUCTURE_ChemicalName_IUPAC>
4-[butyl(nitroso)amino]butan-1-ol

>  <STRUCTURE_SMILES>
N(CCCCO)(CCCC)N=O

>  <STRUCTURE_Parent_SMILES>
N(CCCCO)(CCCC)N=O

>  <STRUCTURE_InChI>
InChI=1/C8H18N2O2/c1-2-3-6-10(9-12)7-4-5-8-11/h11H,2-8H2,1H3

>  <STRUCTURE_InChIKey>
DIKPQFXYECAYPC-UHFFFAOYAQ

>  <StudyType>
Carcinogenicity

>  <Endpoint>
TD50; Tumor Target Sites

>  <Species>
rat

>  <ActivityOutcome_CPDBAS_Mutagenicity>
active

>  <TD50_Rat_mg>
0.457

>  <TD50_Rat_mmol>
0.00262

>  <ActivityScore_CPDBAS_Rat>
52

>  <TD50_Rat_Note>
TD50 is harmonic mean of more than one positive test; harmonic mean of TD50 includes a value for upper 99% confidence limit from study with 100% tumor incidence but no lifetable; greater than ten-fold variation among TD50 values for positive results

>  <TargetSites_Rat_Male>
testes; urinary bladder

>  <TargetSites_Rat_Female>
urinary bladder

>  <ActivityOutcome_CPDBAS_Rat>
active

>  <ActivityOutcome_CPDBAS_SingleCellCall>
active

>  <ActivityOutcome_CPDBAS_MultiCellCall>
active

>  <ActivityOutcome_CPDBAS_MultiCellCall_Details>
multisite active; multisex active

>  <Note_CPDBAS>
TD50_Rat_Note added v5a

>  <ChemicalPage_URL>
http://potency.berkeley.edu/chempages/N-BUTYL-N-(4-HYDROXYBUTYL)NITROSAMINE.html

$$$$



 17 17  0  0  0  0  0  0  0  0999 V2000
    3.9901   -1.1505    0.0000 O   0  0  0  0  0  0  0  0  0  0  0  0
    3.3250   -2.3009    0.0000 C   0  0  0  0  0  0  0  0  0  0  0  0
    3.9901   -3.4580    0.0000 C   0  0  0  0  0  0  0  0  0  0  0  0
    3.3250   -4.6085    0.0000 C   0  0  0  0  0  0  0  0  0  0  0  0
    1.9950   -4.6085    0.0000 C   0  0  0  0  0  0  0  0  0  0  0  0
    1.3300   -3.4580    0.0000 C   0  0  0  0  0  0  0  0  0  0  0  0
    1.9950   -2.3009    0.0000 C   0  0  0  0  0  0  0  0  0  0  0  0
    1.3300   -1.1505    0.0000 C   0  0  0  0  0  0  0  0  0  0  0  0
    0.6650    0.0000    0.0000 C   0  0  0  0  0  0  0  0  0  0  0  0
    2.4805   -0.4855    0.0000 C   0  0  0  0  0  0  0  0  0  0  0  0
    0.1796   -1.8155    0.0000 C   0  0  0  0  0  0  0  0  0  0  0  0
    1.3300   -5.7590    0.0000 C   0  0  0  0  0  0  0  0  0  0  0  0
    0.0000   -5.7590    0.0000 O   0  0  0  0  0  0  0  0  0  0  0  0
    5.3201   -3.4580    0.0000 C   0  0  0  0  0  0  0  0  0  0  0  0
    5.3201   -2.1280    0.0000 C   0  0  0  0  0  0  0  0  0  0  0  0
    6.6501   -3.4580    0.0000 C   0  0  0  0  0  0  0  0  0  0  0  0
    5.3201   -4.7881    0.0000 C   0  0  0  0  0  0  0  0  0  0  0  0
  1  2  1  0  0  0  0
  2  3  2  0  0  0  0
  2  7  1  0  0  0  0
  3  4  1  0  0  0  0
  3 14  1  0  0  0  0
  4  5  2  0  0  0  0
  5  6  1  0  0  0  0
  5 12  1  0  0  0  0
  6  7  2  0  0  0  0
  7  8  1  0  0  0  0
  8  9  1  0  0  0  0
  8 10  1  0  0  0  0
  8 11  1  0  0  0  0
 12 13  1  0  0  0  0
 14 15  1  0  0  0  0
 14 16  1  0  0  0  0
 14 17  1  0  0  0  0
M  END
>  <DSSTox_RID>
20211

>  <DSSTox_CID>
211

>  <DSSTox_Generic_SID>
20211

>  <DSSTox_FileID>
216_CPDBAS_v5d

>  <STRUCTURE_Formula>
C15H24O2

>  <STRUCTURE_MolecularWeight>
236.3534

>  <STRUCTURE_ChemicalType>
defined organic

>  <STRUCTURE_TestedForm_DefinedOrganic>
parent

>  <STRUCTURE_Shown>
tested chemical

>  <TestSubstance_ChemicalName>
di-tert-Butyl-4-hydroxymethyl phenol

>  <TestSubstance_CASRN>
88-26-6

>  <TestSubstance_Description>
single chemical compound

>  <STRUCTURE_ChemicalName_IUPAC>
2,6-bis(1,1-dimethylethyl)-4-(hydroxymethyl)phenol

>  <STRUCTURE_SMILES>
OC1=C(C=C(C=C1C(C)(C)C)CO)C(C)(C)C

>  <STRUCTURE_Parent_SMILES>
OC1=C(C=C(C=C1C(C)(C)C)CO)C(C)(C)C

>  <STRUCTURE_InChI>
InChI=1/C15H24O2/c1-14(2,3)11-7-10(9-16)8-12(13(11)17)15(4,5)6/h7-8,16-17H,9H2,1-6H3

>  <STRUCTURE_InChIKey>
HNURKXXMYARGAY-UHFFFAOYAF

>  <StudyType>
Carcinogenicity

>  <Endpoint>
TD50; Tumor Target Sites

>  <Species>
rat

>  <ActivityScore_CPDBAS_Rat>
0

>  <TD50_Rat_Note>
no positive results

>  <TargetSites_Rat_Male>
no positive results

>  <TargetSites_Rat_Female>
no positive results

>  <ActivityOutcome_CPDBAS_Rat>
inactive

>  <ActivityOutcome_CPDBAS_SingleCellCall>
inactive

>  <ActivityOutcome_CPDBAS_MultiCellCall>
inactive

>  <ActivityOutcome_CPDBAS_MultiCellCall_Details>
multisex inactive

>  <ChemicalPage_URL>
http://potency.berkeley.edu/chempages/DI-tert-BUTYL-4-HYDROXYMETHYL%20PHENOL.html

$$$$



 12 12  0  0  0  0  0  0  0  0999 V2000
    1.8146   -3.8135    0.0000 C   0  0  0  0  0  0  0  0  0  0  0  0
    1.1521   -2.6614    0.0000 C   0  0  0  0  0  0  0  0  0  0  0  0
    2.3042   -1.9989    0.0000 C   0  0  0  0  0  0  0  0  0  0  0  0
    2.3042   -0.6682    0.0000 C   0  0  0  0  0  0  0  0  0  0  0  0
    3.4563    0.0000    0.0000 C   0  0  0  0  0  0  0  0  0  0  0  0
    4.6085   -0.6682    0.0000 C   0  0  0  0  0  0  0  0  0  0  0  0
    4.6085   -1.9989    0.0000 C   0  0  0  0  0  0  0  0  0  0  0  0
    3.4563   -2.6614    0.0000 C   0  0  0  0  0  0  0  0  0  0  0  0
    5.7606   -2.6614    0.0000 C   0  0  0  0  0  0  0  0  0  0  0  0
    1.1521    0.0000    0.0000 O   0  0  0  0  0  0  0  0  0  0  0  0
    0.0000   -3.3239    0.0000 C   0  0  0  0  0  0  0  0  0  0  0  0
    0.4896   -1.5093    0.0000 C   0  0  0  0  0  0  0  0  0  0  0  0
  1  2  1  0  0  0  0
  2  3  1  0  0  0  0
  2 11  1  0  0  0  0
  2 12  1  0  0  0  0
  3  4  2  0  0  0  0
  3  8  1  0  0  0  0
  4  5  1  0  0  0  0
  4 10  1  0  0  0  0
  5  6  2  0  0  0  0
  6  7  1  0  0  0  0
  7  8  2  0  0  0  0
  7  9  1  0  0  0  0
M  END
>  <DSSTox_RID>
20212

>  <DSSTox_CID>
212

>  <DSSTox_Generic_SID>
20212

>  <DSSTox_FileID>
217_CPDBAS_v5d

>  <STRUCTURE_Formula>
C11H16O

>  <STRUCTURE_MolecularWeight>
164.2441

>  <STRUCTURE_ChemicalType>
defined organic

>  <STRUCTURE_TestedForm_DefinedOrganic>
parent

>  <STRUCTURE_Shown>
tested chemical

>  <TestSubstance_ChemicalName>
2-tert-Butyl-4-methoxyphenol

>  <TestSubstance_CASRN>
2409-55-4

>  <TestSubstance_Description>
single chemical compound

>  <STRUCTURE_ChemicalName_IUPAC>
2-(1,1-dimethylethyl)-4-methylphenol

>  <STRUCTURE_SMILES>
CC(C1=C(C=CC(=C1)C)O)(C)C

>  <STRUCTURE_Parent_SMILES>
CC(C1=C(C=CC(=C1)C)O)(C)C

>  <STRUCTURE_InChI>
InChI=1/C11H16O/c1-8-5-6-10(12)9(7-8)11(2,3)4/h5-7,12H,1-4H3

>  <STRUCTURE_InChIKey>
IKEHOXWJQXIQAG-UHFFFAOYAH

>  <StudyType>
Carcinogenicity

>  <Endpoint>
TD50; Tumor Target Sites

>  <Species>
rat

>  <ActivityScore_CPDBAS_Rat>
0

>  <TD50_Rat_Note>
no positive results

>  <TargetSites_Rat_Male>
no positive results

>  <ActivityOutcome_CPDBAS_Rat>
inactive

>  <ActivityOutcome_CPDBAS_SingleCellCall>
inactive

>  <ChemicalPage_URL>
http://potency.berkeley.edu/chempages/2-tert-BUTYL-4-METHYLPHENOL.html

$$$$



 13 12  0  0  0  0  0  0  0  0999 V2000
    3.9899   -3.4516    0.0000 N   0  0  0  0  0  0  0  0  0  0  0  0
    2.6560   -3.4516    0.0000 C   0  0  0  0  0  0  0  0  0  0  0  0
    1.9920   -4.6061    0.0000 N   0  0  0  0  0  0  0  0  0  0  0  0
    2.6560   -5.7546    0.0000 C   0  0  0  0  0  0  0  0  0  0  0  0
    3.9899   -5.7546    0.0000 C   0  0  0  0  0  0  0  0  0  0  0  0
    4.6539   -4.6061    0.0000 C   0  0  0  0  0  0  0  0  0  0  0  0
    5.9819   -4.6061    0.0000 C   0  0  0  0  0  0  0  0  0  0  0  0
    0.6640   -4.6061    0.0000 N   0  0  0  0  0  0  0  0  0  0  0  0
    0.0000   -3.4516    0.0000 O   0  0  0  0  0  0  0  0  0  0  0  0
    1.9920   -2.3030    0.0000 N   0  0  0  0  0  0  0  0  0  0  0  0
    2.6560   -1.1485    0.0000 N   0  3  0  0  0  0  0  0  0  0  0  0
    1.9920    0.0000    0.0000 O   0  0  0  0  0  0  0  0  0  0  0  0
    3.9899   -1.1485    0.0000 O   0  5  0  0  0  0  0  0  0  0  0  0
  1  2  2  0  0  0  0
  2  3  1  0  0  0  0
  2 10  1  0  0  0  0
  3  4  1  0  0  0  0
  3  8  1  0  0  0  0
  4  5  1  0  0  0  0
  5  6  1  0  0  0  0
  6  7  1  0  0  0  0
  8  9  2  0  0  0  0
 10 11  1  0  0  0  0
 11 12  2  0  0  0  0
 11 13  1  0  0  0  0
M  END
>  <DSSTox_RID>
20213

>  <DSSTox_CID>
213

>  <DSSTox_Generic_SID>
20213

>  <DSSTox_FileID>
218_CPDBAS_v5d

>  <STRUCTURE_Formula>
C5H11N5O3

>  <STRUCTURE_MolecularWeight>
189.1736

>  <STRUCTURE_ChemicalType>
defined organic

>  <STRUCTURE_TestedForm_DefinedOrganic>
parent

>  <STRUCTURE_Shown>
tested chemical

>  <TestSubstance_ChemicalName>
N-Butyl-N'-nitro-N-nitrosoguanidine

>  <TestSubstance_CASRN>
13010-08-7

>  <TestSubstance_Description>
single chemical compound

>  <STRUCTURE_ChemicalName_IUPAC>
1-butyl-3-nitro-1-nitrosoguanidine

>  <STRUCTURE_SMILES>
N=C(N(CCCC)N=O)N[N+](=O)[O-]

>  <STRUCTURE_Parent_SMILES>
N=C(N(CCCC)N=O)N[N+](=O)[O-]

>  <STRUCTURE_InChI>
InChI=1/C5H11N5O3/c1-2-3-4-9(8-11)5(6)7-10(12)13/h2-4H2,1H3,(H2,6,7)/f/h6-7H

>  <STRUCTURE_InChIKey>
FJNCPBNCTRDXFB-ZDKSUBDRCM

>  <StudyType>
Carcinogenicity

>  <Endpoint>
TD50; Tumor Target Sites

>  <Species>
rat

>  <ActivityOutcome_CPDBAS_Mutagenicity>
active

>  <ActivityScore_CPDBAS_Rat>
0

>  <TD50_Rat_Note>
no positive results

>  <TargetSites_Rat_Male>
no positive results

>  <ActivityOutcome_CPDBAS_Rat>
inactive

>  <ActivityOutcome_CPDBAS_SingleCellCall>
inactive

>  <ChemicalPage_URL>
http://potency.berkeley.edu/chempages/N-BUTYL-N'-NITRO-N-NITROSOGUANIDINE.html

$$$$



 10  9  0  0  0  0  0  0  0  0999 V2000
    4.6062   -2.6601    0.0000 O   0  0  0  0  0  0  0  0  0  0  0  0
    3.4546   -1.9979    0.0000 C   0  0  0  0  0  0  0  0  0  0  0  0
    3.4546   -0.6679    0.0000 N   0  0  0  0  0  0  0  0  0  0  0  0
    2.3031    0.0000    0.0000 C   0  0  0  0  0  0  0  0  0  0  0  0
    1.1515   -0.6679    0.0000 C   0  0  0  0  0  0  0  0  0  0  0  0
    1.1515   -1.9979    0.0000 C   0  0  0  0  0  0  0  0  0  0  0  0
    0.0000   -2.6601    0.0000 C   0  0  0  0  0  0  0  0  0  0  0  0
    4.6062    0.0000    0.0000 N   0  0  0  0  0  0  0  0  0  0  0  0
    5.7577   -0.6679    0.0000 O   0  0  0  0  0  0  0  0  0  0  0  0
    2.3031   -2.6601    0.0000 N   0  0  0  0  0  0  0  0  0  0  0  0
  1  2  2  0  0  0  0
  2  3  1  0  0  0  0
  2 10  1  0  0  0  0
  3  4  1  0  0  0  0
  3  8  1  0  0  0  0
  4  5  1  0  0  0  0
  5  6  1  0  0  0  0
  6  7  1  0  0  0  0
  8  9  2  0  0  0  0
M  END
>  <DSSTox_RID>
20214

>  <DSSTox_CID>
214

>  <DSSTox_Generic_SID>
20214

>  <DSSTox_FileID>
219_CPDBAS_v5d

>  <STRUCTURE_Formula>
C5H11N3O2

>  <STRUCTURE_MolecularWeight>
145.1608

>  <STRUCTURE_ChemicalType>
defined organic

>  <STRUCTURE_TestedForm_DefinedOrganic>
parent

>  <STRUCTURE_Shown>
tested chemical

>  <TestSubstance_ChemicalName>
N-n-Butyl-N-nitrosourea

>  <TestSubstance_CASRN>
869-01-2

>  <TestSubstance_Description>
single chemical compound

>  <STRUCTURE_ChemicalName_IUPAC>
1-butyl-1-nitrosourea

>  <STRUCTURE_SMILES>
O=C(N(CCCC)N=O)N

>  <STRUCTURE_Parent_SMILES>
O=C(N(CCCC)N=O)N

>  <STRUCTURE_InChI>
InChI=1/C5H11N3O2/c1-2-3-4-8(7-10)5(6)9/h2-4H2,1H3,(H2,6,9)/f/h6H2

>  <STRUCTURE_InChIKey>
LSWOCDLIYSKTRX-MDVJYLRGCI

>  <StudyType>
Carcinogenicity

>  <Endpoint>
TD50; Tumor Target Sites

>  <Species>
rat

>  <ActivityOutcome_CPDBAS_Mutagenicity>
active

>  <TD50_Rat_mg>
0.517

>  <TD50_Rat_mmol>
0.00356

>  <ActivityScore_CPDBAS_Rat>
51

>  <TD50_Rat_Note>
TD50 is harmonic mean of more than one positive test; greater than ten-fold variation among TD50 values for positive results

>  <TargetSites_Rat_Male>
esophagus; ear Zymbals gland; hematopoietic system; large intestine; lung; stomach

>  <TargetSites_Rat_Female>
esophagus; ear Zymbals gland; hematopoietic system; large intestine; lung; mammary gland; stomach; uterus; vagina

>  <ActivityOutcome_CPDBAS_Rat>
active

>  <ActivityOutcome_CPDBAS_SingleCellCall>
active

>  <ActivityOutcome_CPDBAS_MultiCellCall>
active

>  <ActivityOutcome_CPDBAS_MultiCellCall_Details>
multisite active; multisex active

>  <ChemicalPage_URL>
http://potency.berkeley.edu/chempages/N-n-BUTYL-N-NITROSOUREA.html

$$$$



 16 16  0  0  0  0  0  0  0  0999 V2000
    3.8114   -1.1518    0.0000 O   0  0  0  0  0  0  0  0  0  0  0  0
    3.1449   -2.3037    0.0000 C   0  0  0  0  0  0  0  0  0  0  0  0
    3.8114   -3.4555    0.0000 C   0  0  0  0  0  0  0  0  0  0  0  0
    3.1449   -4.6073    0.0000 C   0  0  0  0  0  0  0  0  0  0  0  0
    1.8183   -4.6073    0.0000 C   0  0  0  0  0  0  0  0  0  0  0  0
    1.1518   -3.4555    0.0000 C   0  0  0  0  0  0  0  0  0  0  0  0
    1.8183   -2.3037    0.0000 C   0  0  0  0  0  0  0  0  0  0  0  0
    1.1518   -1.1518    0.0000 C   0  0  0  0  0  0  0  0  0  0  0  0
    0.4853    0.0000    0.0000 C   0  0  0  0  0  0  0  0  0  0  0  0
    2.3037   -0.4853    0.0000 C   0  0  0  0  0  0  0  0  0  0  0  0
    0.0000   -1.8183    0.0000 C   0  0  0  0  0  0  0  0  0  0  0  0
    1.1518   -5.7592    0.0000 C   0  0  0  0  0  0  0  0  0  0  0  0
    5.1380   -3.4555    0.0000 C   0  0  0  0  0  0  0  0  0  0  0  0
    5.1380   -2.1290    0.0000 C   0  0  0  0  0  0  0  0  0  0  0  0
    6.4710   -3.4555    0.0000 C   0  0  0  0  0  0  0  0  0  0  0  0
    5.1380   -4.7885    0.0000 C   0  0  0  0  0  0  0  0  0  0  0  0
  1  2  1  0  0  0  0
  2  3  2  0  0  0  0
  2  7  1  0  0  0  0
  3  4  1  0  0  0  0
  3 13  1  0  0  0  0
  4  5  2  0  0  0  0
  5  6  1  0  0  0  0
  5 12  1  0  0  0  0
  6  7  2  0  0  0  0
  7  8  1  0  0  0  0
  8  9  1  0  0  0  0
  8 10  1  0  0  0  0
  8 11  1  0  0  0  0
 13 14  1  0  0  0  0
 13 15  1  0  0  0  0
 13 16  1  0  0  0  0
M  END
>  <DSSTox_RID>
20216

>  <DSSTox_CID>
216

>  <DSSTox_Generic_SID>
20216

>  <DSSTox_FileID>
221_CPDBAS_v5d

>  <STRUCTURE_Formula>
C15H24O

>  <STRUCTURE_MolecularWeight>
220.3505

>  <STRUCTURE_ChemicalType>
defined organic

>  <STRUCTURE_TestedForm_DefinedOrganic>
parent

>  <STRUCTURE_Shown>
tested chemical

>  <TestSubstance_ChemicalName>
Butylated hydroxytoluene

>  <TestSubstance_CASRN>
128-37-0

>  <TestSubstance_Description>
single chemical compound

>  <STRUCTURE_ChemicalName_IUPAC>
2,6-di-tert-butyl-4-methylphenol

>  <STRUCTURE_SMILES>
OC1=C(C=C(C=C1C(C)(C)C)C)C(C)(C)C

>  <STRUCTURE_Parent_SMILES>
OC1=C(C=C(C=C1C(C)(C)C)C)C(C)(C)C

>  <STRUCTURE_InChI>
InChI=1/C15H24O/c1-10-8-11(14(2,3)4)13(16)12(9-10)15(5,6)7/h8-9,16H,1-7H3

>  <STRUCTURE_InChIKey>
NLZUEZXRPGMBCV-UHFFFAOYAU

>  <StudyType>
Carcinogenicity

>  <Endpoint>
TD50; Tumor Target Sites

>  <Species>
rat; mouse

>  <ActivityOutcome_CPDBAS_Mutagenicity>
inactive

>  <ActivityScore_CPDBAS_Rat>
0

>  <TD50_Rat_Note>
no positive results

>  <TargetSites_Rat_Male>
no positive results

>  <TargetSites_Rat_Female>
no positive results

>  <ActivityOutcome_CPDBAS_Rat>
inactive

>  <TD50_Mouse_mg>
653

>  <TD50_Mouse_mmol>
2.96

>  <ActivityScore_CPDBAS_Mouse>
23

>  <TD50_Mouse_Note>
TD50 is harmonic mean of more than one positive test

>  <TargetSites_Mouse_Male>
liver; lung

>  <TargetSites_Mouse_Female>
no positive results

>  <ActivityOutcome_CPDBAS_Mouse>
active

>  <ActivityOutcome_CPDBAS_SingleCellCall>
active

>  <ActivityOutcome_CPDBAS_MultiCellCall>
active

>  <ActivityOutcome_CPDBAS_MultiCellCall_Details>
multisite active

>  <NTP_TechnicalReport>
TR 150; additional results included in CPDB

>  <ChemicalPage_URL>
http://potency.berkeley.edu/chempages/BUTYLATED%20HYDROXYTOLUENE.html

$$$$



 10  9  0  0  0  0  0  0  0  0999 V2000
    4.6072   -0.6697    0.0000 N   0  0  0  0  0  0  0  0  0  0  0  0
    4.6072   -2.0010    0.0000 N   0  0  0  0  0  0  0  0  0  0  0  0
    5.7610   -2.6626    0.0000 C   0  0  0  0  0  0  0  0  0  0  0  0
    6.9148   -2.0010    0.0000 C   0  0  0  0  0  0  0  0  0  0  0  0
    6.9148   -0.6697    0.0000 C   0  0  0  0  0  0  0  0  0  0  0  0
    8.0686    0.0000    0.0000 C   0  0  0  0  0  0  0  0  0  0  0  0
    3.4614   -2.6626    0.0000 C   0  0  0  0  0  0  0  0  0  0  0  0
    2.3076   -2.0010    0.0000 C   0  0  0  0  0  0  0  0  0  0  0  0
    1.1538   -2.6626    0.0000 C   0  0  0  0  0  0  0  0  0  0  0  0
    0.0000   -2.0010    0.0000 C   0  0  0  0  0  0  0  0  0  0  0  0
  1  2  1  0  0  0  0
  2  3  1  0  0  0  0
  2  7  1  0  0  0  0
  3  4  1  0  0  0  0
  4  5  1  0  0  0  0
  5  6  1  0  0  0  0
  7  8  1  0  0  0  0
  8  9  1  0  0  0  0
  9 10  1  0  0  0  0
M  END
>  <DSSTox_RID>
20217

>  <DSSTox_CID>
217

>  <DSSTox_Generic_SID>
20217

>  <DSSTox_FileID>
222_CPDBAS_v5d

>  <STRUCTURE_Formula>
C8H20N2

>  <STRUCTURE_MolecularWeight>
144.2594

>  <STRUCTURE_ChemicalType>
defined organic

>  <STRUCTURE_TestedForm_DefinedOrganic>
parent

>  <STRUCTURE_Shown>
tested chemical

>  <TestSubstance_ChemicalName>
1,1-di-n-Butylhydrazine

>  <TestSubstance_CASRN>
7422-80-2

>  <TestSubstance_Description>
single chemical compound

>  <STRUCTURE_ChemicalName_IUPAC>
1,1-dibutylhydrazine

>  <STRUCTURE_SMILES>
NN(CCCC)CCCC

>  <STRUCTURE_Parent_SMILES>
NN(CCCC)CCCC

>  <STRUCTURE_InChI>
InChI=1/C8H20N2/c1-3-5-7-10(9)8-6-4-2/h3-9H2,1-2H3

>  <STRUCTURE_InChIKey>
DJTIANXYHUNHQV-UHFFFAOYAO

>  <StudyType>
Carcinogenicity

>  <Endpoint>
TD50; Tumor Target Sites

>  <Species>
mouse

>  <TD50_Mouse_mg>
45.2

>  <TD50_Mouse_mmol>
0.313

>  <ActivityScore_CPDBAS_Mouse>
34

>  <TD50_Mouse_Note>
TD50 is harmonic mean of more than one positive test

>  <TargetSites_Mouse_Male>
liver; lung; stomach

>  <TargetSites_Mouse_Female>
lung; stomach

>  <ActivityOutcome_CPDBAS_Mouse>
active

>  <ActivityOutcome_CPDBAS_SingleCellCall>
active

>  <ActivityOutcome_CPDBAS_MultiCellCall>
active

>  <ActivityOutcome_CPDBAS_MultiCellCall_Details>
multisite active; multisex active

>  <ChemicalPage_URL>
http://potency.berkeley.edu/chempages/1,1-DI-n-BUTYLHYDRAZINE.html

$$$$



 12 12  0  0  0  0  0  0  0  0999 V2000
    3.4654   -5.3232    0.0000 O   0  0  0  0  0  0  0  0  0  0  0  0
    4.6152   -2.0015    0.0000 C   0  0  0  0  0  0  0  0  0  0  0  0
    4.6152   -3.3163    0.0000 C   0  0  0  0  0  0  0  0  0  0  0  0
    3.4654   -1.3308    0.0000 C   0  0  0  0  0  0  0  0  0  0  0  0
    3.4654   -3.9924    0.0000 C   0  0  0  0  0  0  0  0  0  0  0  0
    2.3103   -2.0015    0.0000 C   0  0  0  0  0  0  0  0  0  0  0  0
    2.3103   -3.3163    0.0000 C   0  0  0  0  0  0  0  0  0  0  0  0
    1.1551   -1.3308    0.0000 C   0  0  0  0  0  0  0  0  0  0  0  0
    0.4951   -2.4859    0.0000 C   0  0  0  0  0  0  0  0  0  0  0  0
    0.0000   -0.6760    0.0000 C   0  0  0  0  0  0  0  0  0  0  0  0
    1.8258   -0.1757    0.0000 C   0  0  0  0  0  0  0  0  0  0  0  0
    3.4654    0.0000    0.0000 O   0  0  0  0  0  0  0  0  0  0  0  0
  1  5  1  0  0  0  0
  2  3  1  0  0  0  0
  2  4  2  0  0  0  0
  3  5  2  0  0  0  0
  4  6  1  0  0  0  0
  4 12  1  0  0  0  0
  5  7  1  0  0  0  0
  6  7  2  0  0  0  0
  6  8  1  0  0  0  0
  8  9  1  0  0  0  0
  8 10  1  0  0  0  0
  8 11  1  0  0  0  0
M  END
>  <DSSTox_RID>
20220

>  <DSSTox_CID>
220

>  <DSSTox_Generic_SID>
20220

>  <DSSTox_FileID>
225_CPDBAS_v5d

>  <STRUCTURE_Formula>
C10H14O2

>  <STRUCTURE_MolecularWeight>
166.217

>  <STRUCTURE_ChemicalType>
defined organic

>  <STRUCTURE_TestedForm_DefinedOrganic>
parent

>  <STRUCTURE_Shown>
tested chemical

>  <TestSubstance_ChemicalName>
t-Butylhydroquinone

>  <TestSubstance_CASRN>
1948-33-0

>  <TestSubstance_Description>
single chemical compound

>  <STRUCTURE_ChemicalName_IUPAC>
2-(1,1-dimethylethyl)benzene-1,4-diol

>  <STRUCTURE_SMILES>
CC(C)(C)c1cc(O)ccc1O

>  <STRUCTURE_Parent_SMILES>
CC(C)(C)c1cc(O)ccc1O

>  <STRUCTURE_InChI>
InChI=1/C10H14O2/c1-10(2,3)8-6-7(11)4-5-9(8)12/h4-6,11-12H,1-3H3

>  <STRUCTURE_InChIKey>
BGNXCDMCOKJUMV-UHFFFAOYAP

>  <StudyType>
Carcinogenicity

>  <Endpoint>
TD50; Tumor Target Sites

>  <Species>
mouse

>  <ActivityOutcome_CPDBAS_Mutagenicity>
inactive

>  <ActivityScore_CPDBAS_Mouse>
0

>  <TD50_Mouse_Note>
no positive results

>  <TargetSites_Mouse_Male>
no positive results

>  <TargetSites_Mouse_Female>
no positive results

>  <ActivityOutcome_CPDBAS_Mouse>
inactive

>  <ActivityOutcome_CPDBAS_SingleCellCall>
inactive

>  <ActivityOutcome_CPDBAS_MultiCellCall>
inactive

>  <ActivityOutcome_CPDBAS_MultiCellCall_Details>
multisex inactive

>  <Note_CPDBAS>
Mouse added v2a

>  <NTP_TechnicalReport>
TR 459

>  <ChemicalPage_URL>
http://potency.berkeley.edu/chempages/tert-BUTYLHYDROQUINONE.html

$$$$



 19 19  0  0  0  0  0  0  0  0999 V2000
    2.6612   -5.7579    0.0000 O   0  0  0  0  0  0  0  0  0  0  0  0
    3.3248   -4.6105    0.0000 C   0  0  0  0  0  0  0  0  0  0  0  0
    2.6612   -3.4561    0.0000 C   0  0  0  0  0  0  0  0  0  0  0  0
    3.3248   -2.3018    0.0000 C   0  0  0  0  0  0  0  0  0  0  0  0
    4.6589   -2.3018    0.0000 C   0  0  0  0  0  0  0  0  0  0  0  0
    5.3225   -3.4561    0.0000 C   0  0  0  0  0  0  0  0  0  0  0  0
    4.6589   -4.6105    0.0000 C   0  0  0  0  0  0  0  0  0  0  0  0
    5.3225   -5.7579    0.0000 C   0  0  0  0  0  0  0  0  0  0  0  0
    5.9860   -6.9123    0.0000 C   0  0  0  0  0  0  0  0  0  0  0  0
    4.1681   -6.4284    0.0000 C   0  0  0  0  0  0  0  0  0  0  0  0
    6.4699   -5.0943    0.0000 C   0  0  0  0  0  0  0  0  0  0  0  0
    5.3225   -1.1544    0.0000 C   0  0  0  0  0  0  0  0  0  0  0  0
    6.4699   -1.8179    0.0000 C   0  0  0  0  0  0  0  0  0  0  0  0
    4.1681   -0.4839    0.0000 C   0  0  0  0  0  0  0  0  0  0  0  0
    5.9860    0.0000    0.0000 C   0  0  0  0  0  0  0  0  0  0  0  0
    1.3272   -3.4561    0.0000 C   0  0  0  0  0  0  0  0  0  0  0  0
    1.3272   -4.7833    0.0000 C   0  0  0  0  0  0  0  0  0  0  0  0
    0.0000   -3.4561    0.0000 C   0  0  0  0  0  0  0  0  0  0  0  0
    1.3272   -2.1290    0.0000 C   0  0  0  0  0  0  0  0  0  0  0  0
  1  2  1  0  0  0  0
  2  3  2  0  0  0  0
  2  7  1  0  0  0  0
  3  4  1  0  0  0  0
  3 16  1  0  0  0  0
  4  5  2  0  0  0  0
  5  6  1  0  0  0  0
  5 12  1  0  0  0  0
  6  7  2  0  0  0  0
  7  8  1  0  0  0  0
  8  9  1  0  0  0  0
  8 10  1  0  0  0  0
  8 11  1  0  0  0  0
 12 13  1  0  0  0  0
 12 14  1  0  0  0  0
 12 15  1  0  0  0  0
 16 17  1  0  0  0  0
 16 18  1  0  0  0  0
 16 19  1  0  0  0  0
M  END
>  <DSSTox_RID>
21311

>  <DSSTox_CID>
1311

>  <DSSTox_Generic_SID>
21311

>  <DSSTox_FileID>
226_CPDBAS_v5d

>  <STRUCTURE_Formula>
C18H30O

>  <STRUCTURE_MolecularWeight>
262.4302

>  <STRUCTURE_ChemicalType>
defined organic

>  <STRUCTURE_TestedForm_DefinedOrganic>
parent

>  <STRUCTURE_Shown>
tested chemical

>  <TestSubstance_ChemicalName>
2,4,6-tri-tert-Butylphenol

>  <TestSubstance_CASRN>
732-26-3

>  <TestSubstance_Description>
single chemical compound

>  <STRUCTURE_ChemicalName_IUPAC>
2,4,6-tris(1,1-dimethylethyl)phenol

>  <STRUCTURE_SMILES>
OC1=C(C=C(C=C1C(C)(C)C)C(C)(C)C)C(C)(C)C

>  <STRUCTURE_Parent_SMILES>
OC1=C(C=C(C=C1C(C)(C)C)C(C)(C)C)C(C)(C)C

>  <STRUCTURE_InChI>
InChI=1/C18H30O/c1-16(2,3)12-10-13(17(4,5)6)15(19)14(11-12)18(7,8)9/h10-11,19H,1-9H3

>  <STRUCTURE_InChIKey>
PFEFOYRSMXVNEL-UHFFFAOYAH

>  <StudyType>
Carcinogenicity

>  <Endpoint>
TD50; Tumor Target Sites

>  <Species>
rat

>  <ActivityScore_CPDBAS_Rat>
0

>  <TD50_Rat_Note>
no positive results

>  <TargetSites_Rat_Male>
no positive results

>  <TargetSites_Rat_Female>
no positive results

>  <ActivityOutcome_CPDBAS_Rat>
inactive

>  <ActivityOutcome_CPDBAS_SingleCellCall>
inactive

>  <ActivityOutcome_CPDBAS_MultiCellCall>
inactive

>  <ActivityOutcome_CPDBAS_MultiCellCall_Details>
multisex inactive

>  <ChemicalPage_URL>
http://potency.berkeley.edu/chempages/2,4,6-TRI-tert-BUTYLPHENOL.html

$$$$



 11 11  0  0  0  0  0  0  0  0999 V2000
    5.3217   -1.3304    0.0000 C   0  0  0  0  0  0  0  0  0  0  0  0
    3.9913   -1.3304    0.0000 C   0  0  0  0  0  0  0  0  0  0  0  0
    3.3261   -2.4813    0.0000 C   0  0  0  0  0  0  0  0  0  0  0  0
    1.9956   -2.4813    0.0000 C   0  0  0  0  0  0  0  0  0  0  0  0
    1.3304   -1.3304    0.0000 C   0  0  0  0  0  0  0  0  0  0  0  0
    0.0000   -1.3304    0.0000 O   0  0  0  0  0  0  0  0  0  0  0  0
    1.9956   -0.1796    0.0000 C   0  0  0  0  0  0  0  0  0  0  0  0
    3.3261   -0.1796    0.0000 C   0  0  0  0  0  0  0  0  0  0  0  0
    5.3217    0.0000    0.0000 C   0  0  0  0  0  0  0  0  0  0  0  0
    6.6521   -1.3304    0.0000 C   0  0  0  0  0  0  0  0  0  0  0  0
    5.3217   -2.6609    0.0000 C   0  0  0  0  0  0  0  0  0  0  0  0
  1  2  1  0  0  0  0
  1  9  1  0  0  0  0
  1 10  1  0  0  0  0
  1 11  1  0  0  0  0
  2  3  2  0  0  0  0
  2  8  1  0  0  0  0
  3  4  1  0  0  0  0
  4  5  2  0  0  0  0
  5  6  1  0  0  0  0
  5  7  1  0  0  0  0
  7  8  2  0  0  0  0
M  END
>  <DSSTox_RID>
20221

>  <DSSTox_CID>
221

>  <DSSTox_Generic_SID>
20221

>  <DSSTox_FileID>
227_CPDBAS_v5d

>  <STRUCTURE_Formula>
C10H14O

>  <STRUCTURE_MolecularWeight>
150.2176

>  <STRUCTURE_ChemicalType>
defined organic

>  <STRUCTURE_TestedForm_DefinedOrganic>
parent

>  <STRUCTURE_Shown>
tested chemical

>  <TestSubstance_ChemicalName>
p-tert-Butylphenol

>  <TestSubstance_CASRN>
98-54-4

>  <TestSubstance_Description>
single chemical compound

>  <STRUCTURE_ChemicalName_IUPAC>
4-(1,1-dimethylethyl)phenol

>  <STRUCTURE_SMILES>
C(C1=CC=C(O)C=C1)(C)(C)C

>  <STRUCTURE_Parent_SMILES>
C(C1=CC=C(O)C=C1)(C)(C)C

>  <STRUCTURE_InChI>
InChI=1/C10H14O/c1-10(2,3)8-4-6-9(11)7-5-8/h4-7,11H,1-3H3

>  <STRUCTURE_InChIKey>
QHPQWRBYOIRBIT-UHFFFAOYAM

>  <StudyType>
Carcinogenicity

>  <Endpoint>
TD50; Tumor Target Sites

>  <Species>
rat

>  <ActivityScore_CPDBAS_Rat>
0

>  <TD50_Rat_Note>
no positive results

>  <TargetSites_Rat_Male>
no positive results

>  <ActivityOutcome_CPDBAS_Rat>
inactive

>  <ActivityOutcome_CPDBAS_SingleCellCall>
inactive

>  <ChemicalPage_URL>
http://potency.berkeley.edu/chempages/p-tert-BUTYLPHENOL.html

$$$$



  8  7  0  0  0  0  0  0  0  0999 V2000
    3.9913    0.0000    0.0000 N   0  0  0  0  0  0  0  0  0  0  0  0
    4.6555   -1.1549    0.0000 C   0  0  0  0  0  0  0  0  0  0  0  0
    5.9839   -1.1549    0.0000 O   0  0  0  0  0  0  0  0  0  0  0  0
    3.9913   -2.3038    0.0000 N   0  0  0  0  0  0  0  0  0  0  0  0
    2.6569   -2.3038    0.0000 C   0  0  0  0  0  0  0  0  0  0  0  0
    1.9926   -1.1549    0.0000 C   0  0  0  0  0  0  0  0  0  0  0  0
    0.6642   -1.1549    0.0000 C   0  0  0  0  0  0  0  0  0  0  0  0
    0.0000    0.0000    0.0000 C   0  0  0  0  0  0  0  0  0  0  0  0
  1  2  1  0  0  0  0
  2  3  2  0  0  0  0
  2  4  1  0  0  0  0
  4  5  1  0  0  0  0
  5  6  1  0  0  0  0
  6  7  1  0  0  0  0
  7  8  1  0  0  0  0
M  END
>  <DSSTox_RID>
20222

>  <DSSTox_CID>
222

>  <DSSTox_Generic_SID>
20222

>  <DSSTox_FileID>
228_CPDBAS_v5d

>  <STRUCTURE_Formula>
C5H12N2O

>  <STRUCTURE_MolecularWeight>
116.1626

>  <STRUCTURE_ChemicalType>
defined organic

>  <STRUCTURE_TestedForm_DefinedOrganic>
parent

>  <STRUCTURE_Shown>
tested chemical

>  <TestSubstance_ChemicalName>
N-Butylurea

>  <TestSubstance_CASRN>
592-31-4

>  <TestSubstance_Description>
single chemical compound

>  <STRUCTURE_ChemicalName_IUPAC>
1-butylurea

>  <STRUCTURE_SMILES>
NC(=O)NCCCC

>  <STRUCTURE_Parent_SMILES>
NC(=O)NCCCC

>  <STRUCTURE_InChI>
InChI=1/C5H12N2O/c1-2-3-4-7-5(6)8/h2-4H2,1H3,(H3,6,7,8)/f/h7H,6H2

>  <STRUCTURE_InChIKey>
CNWSQCLBDWYLAN-KOOMONESCG

>  <StudyType>
Carcinogenicity

>  <Endpoint>
TD50; Tumor Target Sites

>  <Species>
rat; mouse

>  <ActivityScore_CPDBAS_Rat>
0

>  <TD50_Rat_Note>
no positive results

>  <TargetSites_Rat_Male>
no positive results

>  <TargetSites_Rat_Female>
no positive results

>  <ActivityOutcome_CPDBAS_Rat>
inactive

>  <ActivityScore_CPDBAS_Mouse>
0

>  <TD50_Mouse_Note>
no positive results

>  <TargetSites_Mouse_Male>
no positive results

>  <TargetSites_Mouse_Female>
no positive results

>  <ActivityOutcome_CPDBAS_Mouse>
inactive

>  <ActivityOutcome_CPDBAS_SingleCellCall>
inactive

>  <ActivityOutcome_CPDBAS_MultiCellCall>
inactive

>  <ActivityOutcome_CPDBAS_MultiCellCall_Details>
multisex inactive; multispecies inactive

>  <ChemicalPage_URL>
http://potency.berkeley.edu/chempages/N-BUTYLUREA.html

$$$$



  6  6  0  0  0  0  0  0  0  0999 V2000
    0.0000   -0.9402    0.0000 C   0  0  0  0  0  0  0  0  0  0  0  0
    1.3308   -0.9402    0.0000 C   0  0  3  0  0  0  0  0  0  0  0  0
    2.2710    0.0000    0.0000 C   0  0  0  0  0  0  0  0  0  0  0  0
    3.2111   -0.9402    0.0000 C   0  0  0  0  0  0  0  0  0  0  0  0
    4.5419   -0.9402    0.0000 O   0  0  0  0  0  0  0  0  0  0  0  0
    2.2710   -1.8804    0.0000 O   0  0  0  0  0  0  0  0  0  0  0  0
  1  2  1  0  0  0  0
  2  3  1  0  0  0  0
  2  6  1  0  0  0  0
  3  4  1  0  0  0  0
  4  5  2  0  0  0  0
  4  6  1  0  0  0  0
M  END
>  <DSSTox_RID>
20223

>  <DSSTox_CID>
223

>  <DSSTox_Generic_SID>
20223

>  <DSSTox_FileID>
229_CPDBAS_v5d

>  <STRUCTURE_Formula>
C4H6O2

>  <STRUCTURE_MolecularWeight>
86.0892

>  <STRUCTURE_ChemicalType>
defined organic

>  <STRUCTURE_TestedForm_DefinedOrganic>
parent

>  <STRUCTURE_Shown>
tested chemical

>  <TestSubstance_ChemicalName>
beta-Butyrolactone

>  <TestSubstance_CASRN>
3068-88-0

>  <TestSubstance_Description>
single chemical compound

>  <STRUCTURE_ChemicalName_IUPAC>
4-methyloxetan-2-one

>  <STRUCTURE_SMILES>
CC1CC(=O)O1

>  <STRUCTURE_Parent_SMILES>
CC1CC(=O)O1

>  <STRUCTURE_InChI>
InChI=1/C4H6O2/c1-3-2-4(5)6-3/h3H,2H2,1H3

>  <STRUCTURE_InChIKey>
GSCLMSFRWBPUSK-UHFFFAOYAG

>  <StudyType>
Carcinogenicity

>  <Endpoint>
TD50; Tumor Target Sites

>  <Species>
rat

>  <TD50_Rat_mg>
13.8

>  <TD50_Rat_mmol>
0.16

>  <ActivityScore_CPDBAS_Rat>
34

>  <TargetSites_Rat_Female>
stomach

>  <ActivityOutcome_CPDBAS_Rat>
active

>  <ActivityOutcome_CPDBAS_SingleCellCall>
active

>  <ChemicalPage_URL>
http://potency.berkeley.edu/chempages/beta-BUTYROLACTONE.html

$$$$



  6  6  0  0  0  0  0  0  0  0999 V2000
    0.0000   -1.0738    0.0000 O   0  0  0  0  0  0  0  0  0  0  0  0
    1.3304   -1.0738    0.0000 C   0  0  0  0  0  0  0  0  0  0  0  0
    2.1104    0.0000    0.0000 C   0  0  0  0  0  0  0  0  0  0  0  0
    3.3767   -0.4086    0.0000 C   0  0  0  0  0  0  0  0  0  0  0  0
    3.3767   -1.7390    0.0000 C   0  0  0  0  0  0  0  0  0  0  0  0
    2.1104   -2.1509    0.0000 O   0  0  0  0  0  0  0  0  0  0  0  0
  1  2  2  0  0  0  0
  2  3  1  0  0  0  0
  2  6  1  0  0  0  0
  3  4  1  0  0  0  0
  4  5  1  0  0  0  0
  5  6  1  0  0  0  0
M  END
>  <DSSTox_RID>
20224

>  <DSSTox_CID>
224

>  <DSSTox_Generic_SID>
20224

>  <DSSTox_FileID>
230_CPDBAS_v5d

>  <STRUCTURE_Formula>
C4H6O2

>  <STRUCTURE_MolecularWeight>
86.0892

>  <STRUCTURE_ChemicalType>
defined organic

>  <STRUCTURE_TestedForm_DefinedOrganic>
parent

>  <STRUCTURE_Shown>
tested chemical

>  <TestSubstance_ChemicalName>
gamma-Butyrolactone

>  <TestSubstance_CASRN>
96-48-0

>  <TestSubstance_Description>
single chemical compound

>  <STRUCTURE_ChemicalName_IUPAC>
dihydrofuran-2(3H)-one

>  <STRUCTURE_SMILES>
O=C1CCCO1

>  <STRUCTURE_Parent_SMILES>
O=C1CCCO1

>  <STRUCTURE_InChI>
InChI=1/C4H6O2/c5-4-2-1-3-6-4/h1-3H2

>  <STRUCTURE_InChIKey>
YEJRWHAVMIAJKC-UHFFFAOYAC

>  <StudyType>
Carcinogenicity

>  <Endpoint>
TD50; Tumor Target Sites

>  <Species>
rat; mouse

>  <ActivityOutcome_CPDBAS_Mutagenicity>
inactive

>  <ActivityScore_CPDBAS_Rat>
0

>  <TD50_Rat_Note>
no positive results

>  <TargetSites_Rat_Male>
no positive results

>  <TargetSites_Rat_Female>
no positive results

>  <ActivityOutcome_CPDBAS_Rat>
inactive

>  <ActivityScore_CPDBAS_Mouse>
0

>  <TD50_Mouse_Note>
no positive results

>  <TargetSites_Mouse_Male>
no positive results

>  <TargetSites_Mouse_Female>
no positive results

>  <ActivityOutcome_CPDBAS_Mouse>
inactive

>  <ActivityOutcome_CPDBAS_SingleCellCall>
inactive

>  <ActivityOutcome_CPDBAS_MultiCellCall>
inactive

>  <ActivityOutcome_CPDBAS_MultiCellCall_Details>
multisex inactive; multispecies inactive

>  <NTP_TechnicalReport>
TR 406

>  <ChemicalPage_URL>
http://potency.berkeley.edu/chempages/gamma-BUTYROLACTONE.html

$$$$



 13 13  0  0  0  0  0  0  0  0999 V2000
    0.0000    1.4013    0.0000 O   0  0  0  0  0  0  0  0  0  0  0  0
    1.2145    2.0978    0.0000 C   0  0  0  0  0  0  0  0  0  0  0  0
    1.2145    3.4991    0.0000 C   0  0  0  0  0  0  0  0  0  0  0  0
    2.4288    4.2039    0.0000 C   0  0  0  0  0  0  0  0  0  0  0  0
    3.6433    3.4991    0.0000 C   0  0  0  0  0  0  0  0  0  0  0  0
    3.6433    2.0978    0.0000 C   0  0  0  0  0  0  0  0  0  0  0  0
    2.4288    1.4013    0.0000 C   0  0  0  0  0  0  0  0  0  0  0  0
    4.8493    1.4013    0.0000 C   0  0  0  0  0  0  0  0  0  0  0  0
    6.0638    2.0978    0.0000 C   0  0  0  0  0  0  0  0  0  0  0  0
    7.2782    1.4013    0.0000 C   0  0  0  0  0  0  0  0  0  0  0  0
    7.2782    0.0000    0.0000 O   0  0  0  0  0  0  0  0  0  0  0  0
    8.4927    2.0978    0.0000 O   0  0  0  0  0  0  0  0  0  0  0  0
    0.0000    4.2039    0.0000 O   0  0  0  0  0  0  0  0  0  0  0  0
  1  2  1  0  0  0  0
  2  3  2  0  0  0  0
  2  7  1  0  0  0  0
  3  4  1  0  0  0  0
  3 13  1  0  0  0  0
  4  5  2  0  0  0  0
  5  6  1  0  0  0  0
  6  7  2  0  0  0  0
  6  8  1  0  0  0  0
  8  9  2  0  0  0  0
  9 10  1  0  0  0  0
 10 11  2  0  0  0  0
 10 12  1  0  0  0  0
M  END
>  <DSSTox_RID>
20231

>  <DSSTox_CID>
231

>  <DSSTox_Generic_SID>
20231

>  <DSSTox_FileID>
237_CPDBAS_v5d

>  <STRUCTURE_Formula>
C9H8O4

>  <STRUCTURE_MolecularWeight>
180.1574

>  <STRUCTURE_ChemicalType>
defined organic

>  <STRUCTURE_TestedForm_DefinedOrganic>
parent

>  <STRUCTURE_Shown>
tested chemical

>  <TestSubstance_ChemicalName>
Caffeic acid

>  <TestSubstance_CASRN>
331-39-5

>  <TestSubstance_Description>
single chemical compound

>  <ChemicalNote>
stereochem

>  <STRUCTURE_ChemicalName_IUPAC>
(2E)-3-(3,4-dihydroxyphenyl)acrylic acid

>  <STRUCTURE_SMILES>
OC1=C(C=CC(=C1)/C=C/C(=O)O)O

>  <STRUCTURE_Parent_SMILES>
OC1=C(C=CC(=C1)/C=C/C(=O)O)O

>  <STRUCTURE_InChI>
InChI=1/C9H8O4/c10-7-3-1-6(5-8(7)11)2-4-9(12)13/h1-5,10-11H,(H,12,13)/b4-2+/f/h12H

>  <STRUCTURE_InChIKey>
QAIPRVGONGVQAS-HBKQKVCHDP

>  <StudyType>
Carcinogenicity

>  <Endpoint>
TD50; Tumor Target Sites

>  <Species>
rat; mouse

>  <ActivityOutcome_CPDBAS_Mutagenicity>
inactive

>  <TD50_Rat_mg>
297

>  <TD50_Rat_mmol>
1.65

>  <ActivityScore_CPDBAS_Rat>
23

>  <TD50_Rat_Note>
TD50 is harmonic mean of more than one positive test

>  <TargetSites_Rat_Male>
kidney; stomach

>  <TargetSites_Rat_Female>
stomach

>  <ActivityOutcome_CPDBAS_Rat>
active

>  <TD50_Mouse_mg>
4900

>  <TD50_Mouse_mmol>
27.2

>  <ActivityScore_CPDBAS_Mouse>
12

>  <TD50_Mouse_Note>
TD50 is harmonic mean of more than one positive test

>  <TargetSites_Mouse_Male>
lung; stomach

>  <TargetSites_Mouse_Female>
kidney; stomach

>  <ActivityOutcome_CPDBAS_Mouse>
active

>  <ActivityOutcome_CPDBAS_SingleCellCall>
active

>  <ActivityOutcome_CPDBAS_MultiCellCall>
active

>  <ActivityOutcome_CPDBAS_MultiCellCall_Details>
multisite active; multisex active; multispecies active

>  <ChemicalPage_URL>
http://potency.berkeley.edu/chempages/CAFFEIC%20ACID.html

$$$$



 14 15  0  0  0  0  0  0  0  0999 V2000
    3.9864   -4.6079    0.0000 O   0  0  0  0  0  0  0  0  0  0  0  0
    3.3272   -3.4590    0.0000 C   0  0  0  0  0  0  0  0  0  0  0  0
    3.9864   -2.3039    0.0000 C   0  0  0  0  0  0  0  0  0  0  0  0
    3.3272   -1.1551    0.0000 C   0  0  0  0  0  0  0  0  0  0  0  0
    4.2124   -0.1632    0.0000 N   0  0  0  0  0  0  0  0  0  0  0  0
    5.4302   -0.7031    0.0000 C   0  0  0  0  0  0  0  0  0  0  0  0
    5.2921   -2.0277    0.0000 N   0  0  0  0  0  0  0  0  0  0  0  0
    6.2777   -2.9192    0.0000 C   0  0  0  0  0  0  0  0  0  0  0  0
    1.9963   -1.1551    0.0000 N   0  0  0  0  0  0  0  0  0  0  0  0
    1.3309   -2.3039    0.0000 C   0  0  0  0  0  0  0  0  0  0  0  0
    0.0000   -2.3039    0.0000 O   0  0  0  0  0  0  0  0  0  0  0  0
    1.9963   -3.4590    0.0000 N   0  0  0  0  0  0  0  0  0  0  0  0
    1.3309   -4.6079    0.0000 C   0  0  0  0  0  0  0  0  0  0  0  0
    1.3309    0.0000    0.0000 C   0  0  0  0  0  0  0  0  0  0  0  0
  1  2  2  0  0  0  0
  2  3  1  0  0  0  0
  2 12  1  0  0  0  0
  3  4  2  0  0  0  0
  3  7  1  0  0  0  0
  4  5  1  0  0  0  0
  4  9  1  0  0  0  0
  5  6  2  0  0  0  0
  6  7  1  0  0  0  0
  7  8  1  0  0  0  0
  9 10  1  0  0  0  0
  9 14  1  0  0  0  0
 10 11  2  0  0  0  0
 10 12  1  0  0  0  0
 12 13  1  0  0  0  0
M  END
>  <DSSTox_RID>
20232

>  <DSSTox_CID>
232

>  <DSSTox_Generic_SID>
20232

>  <DSSTox_FileID>
238_CPDBAS_v5d

>  <STRUCTURE_Formula>
C8H10N4O2

>  <STRUCTURE_MolecularWeight>
194.1906

>  <STRUCTURE_ChemicalType>
defined organic

>  <STRUCTURE_TestedForm_DefinedOrganic>
parent

>  <STRUCTURE_Shown>
tested chemical

>  <TestSubstance_ChemicalName>
Caffeine

>  <TestSubstance_CASRN>
58-08-2

>  <TestSubstance_Description>
single chemical compound

>  <STRUCTURE_ChemicalName_IUPAC>
1,3,7-trimethyl-3,7-dihydro-1H-purine-2,6-dione

>  <STRUCTURE_SMILES>
O=C1C2=C(N=CN2C)N(C(=O)N1C)C

>  <STRUCTURE_Parent_SMILES>
O=C1C2=C(N=CN2C)N(C(=O)N1C)C

>  <STRUCTURE_InChI>
InChI=1/C8H10N4O2/c1-10-4-9-6-5(10)7(13)12(3)8(14)11(6)2/h4H,1-3H3

>  <STRUCTURE_InChIKey>
RYYVLZVUVIJVGH-UHFFFAOYAW

>  <StudyType>
Carcinogenicity

>  <Endpoint>
TD50; Tumor Target Sites

>  <Species>
rat; mouse

>  <ActivityOutcome_CPDBAS_Mutagenicity>
inactive

>  <ActivityScore_CPDBAS_Rat>
0

>  <TD50_Rat_Note>
no positive results

>  <TargetSites_Rat_Male>
no positive results

>  <TargetSites_Rat_Female>
no positive results

>  <ActivityOutcome_CPDBAS_Rat>
inactive

>  <ActivityScore_CPDBAS_Mouse>
0

>  <TD50_Mouse_Note>
no positive results

>  <TargetSites_Mouse_Male>
no positive results

>  <TargetSites_Mouse_Female>
no positive results

>  <ActivityOutcome_CPDBAS_Mouse>
inactive

>  <ActivityOutcome_CPDBAS_SingleCellCall>
inactive

>  <ActivityOutcome_CPDBAS_MultiCellCall>
inactive

>  <ActivityOutcome_CPDBAS_MultiCellCall_Details>
multisex inactive; multispecies inactive

>  <ChemicalPage_URL>
http://potency.berkeley.edu/chempages/CAFFEINE.html

$$$$



 31 33  0  0  1  0  0  0  0  0999 V2000
    4.5220   -3.9128    0.0000 C   0  0  1  0  0  0  0  0  0  0  0  0
    4.5220   -5.2249    0.0000 C   0  0  2  0  0  0  0  0  0  0  0  0
    2.2844   -9.1025    0.0000 C   0  0  0  0  0  0  0  0  0  0  0  0
    5.6349   -3.2568    0.0000 C   0  0  2  0  0  0  0  0  0  0  0  0
    2.2844   -7.8022    0.0000 C   0  0  0  0  0  0  0  0  0  0  0  0
    3.3856   -9.7469    0.0000 C   0  0  0  0  0  0  0  0  0  0  0  0
    3.3856   -5.8692    0.0000 C   0  0  0  0  0  0  0  0  0  0  0  0
    3.3856   -7.1579    0.0000 C   0  0  0  0  0  0  0  0  0  0  0  0
    6.7361   -1.3004    0.0000 C   0  0  0  0  0  0  0  0  0  0  0  0
    7.8725   -1.9447    0.0000 C   0  0  0  0  0  0  0  0  0  0  0  0
    6.7713   -5.2249    0.0000 C   0  0  0  0  0  0  0  0  0  0  0  0
    6.7713   -3.9128    0.0000 C   0  0  0  0  0  0  0  0  0  0  0  0
    1.1598   -9.7469    0.0000 C   0  0  0  0  0  0  0  0  0  0  0  0
    5.6349   -1.9447    0.0000 C   0  0  1  0  0  0  0  0  0  0  0  0
    3.3856  -11.0355    0.0000 C   0  0  0  0  0  0  0  0  0  0  0  0
    4.5220   -9.1025    0.0000 C   0  0  0  0  0  0  0  0  0  0  0  0
    8.9737   -1.3004    0.0000 C   0  0  1  0  0  0  0  0  0  0  0  0
    3.3856   -3.2568    0.0000 C   0  0  0  0  0  0  0  0  0  0  0  0
    4.5220   -2.6124    0.0000 C   0  0  0  0  0  0  0  0  0  0  0  0
    1.1598  -11.0355    0.0000 C   0  0  2  0  0  0  0  0  0  0  0  0
    2.2844  -11.6798    0.0000 C   0  0  0  0  0  0  0  0  0  0  0  0
   10.1100   -1.9447    0.0000 C   0  0  0  0  0  0  0  0  0  0  0  0
    2.2844   -5.2249    0.0000 C   0  0  0  0  0  0  0  0  0  0  0  0
    0.0000  -11.7150    0.0000 O   0  0  0  0  0  0  0  0  0  0  0  0
    2.2844   -3.9128    0.0000 C   0  0  0  0  0  0  0  0  0  0  0  0
    4.4986   -1.3004    0.0000 C   0  0  0  0  0  0  0  0  0  0  0  0
    8.9854    0.0000    0.0000 C   0  0  0  0  0  0  0  0  0  0  0  0
   10.1100   -3.2568    0.0000 C   0  0  0  0  0  0  0  0  0  0  0  0
   11.2230   -1.3004    0.0000 C   0  0  0  0  0  0  0  0  0  0  0  0
    4.5220   -6.5721    0.0000 H   0  0  0  0  0  0  0  0  0  0  0  0
    5.6349   -4.6157    0.0000 H   0  0  0  0  0  0  0  0  0  0  0  0
  1  2  1  0  0  0  0
  1  4  1  0  0  0  0
  1 18  1  0  0  0  0
  1 19  1  1  0  0  0
  2  7  1  0  0  0  0
  2 11  1  0  0  0  0
  2 30  1  6  0  0  0
  3  5  2  0  0  0  0
  3  6  1  0  0  0  0
  3 13  1  0  0  0  0
  4 12  1  0  0  0  0
  4 14  1  0  0  0  0
  4 31  1  6  0  0  0
  5  8  1  0  0  0  0
  6 15  1  0  0  0  0
  6 16  2  0  0  0  0
  7  8  2  0  0  0  0
  7 23  1  0  0  0  0
  9 14  1  0  0  0  0
  9 10  2  0  0  0  0
 10 17  1  0  0  0  0
 11 12  1  0  0  0  0
 13 20  1  0  0  0  0
 14 26  1  6  0  0  0
 15 21  1  0  0  0  0
 17 22  1  0  0  0  0
 17 27  1  6  0  0  0
 18 25  1  0  0  0  0
 20 21  1  0  0  0  0
 20 24  1  6  0  0  0
 22 28  1  0  0  0  0
 22 29  1  0  0  0  0
 23 25  1  0  0  0  0
M  END
>  <DSSTox_RID>
20233

>  <DSSTox_CID>
233

>  <DSSTox_Generic_SID>
20233

>  <DSSTox_FileID>
239_CPDBAS_v5d

>  <STRUCTURE_Formula>
C28H44O

>  <STRUCTURE_MolecularWeight>
396.6484

>  <STRUCTURE_ChemicalType>
defined organic

>  <STRUCTURE_TestedForm_DefinedOrganic>
parent

>  <STRUCTURE_Shown>
tested chemical

>  <TestSubstance_ChemicalName>
Calciferol

>  <TestSubstance_CASRN>
50-14-6

>  <TestSubstance_Description>
single chemical compound

>  <ChemicalNote>
stereochem

>  <STRUCTURE_ChemicalName_IUPAC>
(3S,5Z,7E,22E)-9,10-secoergosta-5,7,10,22-tetraen-3-ol

>  <STRUCTURE_SMILES>
O[C@@H]2C/C(C(CC2)=C)=C/C=C3/[C@@]1([H])[C@@](CCC3)(C)[C@]([C@H](C)/C=C/[C@H](C)C(C)C)([H])CC1

>  <STRUCTURE_Parent_SMILES>
O[C@@H]2C/C(C(CC2)=C)=C/C=C3/[C@@]1([H])[C@@](CCC3)(C)[C@]([C@H](C)/C=C/[C@H](C)C(C)C)([H])CC1

>  <STRUCTURE_InChI>
InChI=1/C28H44O/c1-19(2)20(3)9-10-22(5)26-15-16-27-23(8-7-17-28(26,27)6)12-13-24-18-25(29)14-11-21(24)4/h9-10,12-13,19-20,22,25-27,29H,4,7-8,11,14-18H2,1-3,5-6H3/b10-9+,23-12+,24-13-/t20-,22+,25-,26+,27-,28+/m0/s1

>  <STRUCTURE_InChIKey>
MECHNRXZTMCUDQ-RKHKHRCZBW

>  <StudyType>
Carcinogenicity

>  <Endpoint>
TD50; Tumor Target Sites

>  <Species>
mouse

>  <ActivityScore_CPDBAS_Mouse>
0

>  <TD50_Mouse_Note>
no positive results

>  <ActivityOutcome_CPDBAS_Mouse>
inactive

>  <ActivityOutcome_CPDBAS_SingleCellCall>
inactive

>  <Note_CPDBAS>
female mice used mammary tumor virus pos stra(MTV+) with high spontaneous incidence of mammary tumors; mammary gland histopath only; no author opinion given since study measured mammary tumor latency; TD50_Mouse modified v2a; TargetSites_Mouse_Female modified v2a; TargetSites_Mouse_Female modified v5a; structure modified v5b

>  <ChemicalPage_URL>
http://potency.berkeley.edu/chempages/CALCIFEROL.html

$$$$



 45 50  0  0  0  0  0  0  0  0999 V2000
    8.0526   -7.3096    0.0000 C   0  0  0  0  0  0  0  0  0  0  0  0
    8.0526   -6.0043    0.0000 C   0  0  0  0  0  0  0  0  0  0  0  0
    9.2173   -5.3216    0.0000 C   0  0  0  0  0  0  0  0  0  0  0  0
    9.2173   -7.9924    0.0000 C   0  0  0  0  0  0  0  0  0  0  0  0
   10.3620   -7.3096    0.0000 C   0  0  0  0  0  0  0  0  0  0  0  0
   10.3620   -6.0043    0.0000 C   0  0  0  0  0  0  0  0  0  0  0  0
   11.6271   -5.6027    0.0000 N   0  0  0  0  0  0  0  0  0  0  0  0
   12.4103   -6.6670    0.0000 C   0  0  0  0  0  0  0  0  0  0  0  0
   11.6271   -7.7514    0.0000 N   0  0  0  0  0  0  0  0  0  0  0  0
   13.7557   -6.6670    0.0000 O   0  0  0  0  0  0  0  0  0  0  0  0
   14.3983   -7.8317    0.0000 C   0  0  0  0  0  0  0  0  0  0  0  0
   15.7438   -7.8317    0.0000 C   0  0  0  0  0  0  0  0  0  0  0  0
   12.1291   -4.3577    0.0000 C   0  0  0  0  0  0  0  0  0  0  0  0
   13.4344   -4.3577    0.0000 C   0  0  0  0  0  0  0  0  0  0  0  0
   14.0770   -3.1729    0.0000 C   0  0  0  0  0  0  0  0  0  0  0  0
   15.4225   -3.1729    0.0000 C   0  0  0  0  0  0  0  0  0  0  0  0
   16.0852   -4.3577    0.0000 C   0  0  0  0  0  0  0  0  0  0  0  0
   15.4225   -5.4822    0.0000 C   0  0  0  0  0  0  0  0  0  0  0  0
   14.0770   -5.4822    0.0000 C   0  0  0  0  0  0  0  0  0  0  0  0
   17.4306   -4.3577    0.0000 C   0  0  0  0  0  0  0  0  0  0  0  0
   18.0732   -3.1729    0.0000 C   0  0  0  0  0  0  0  0  0  0  0  0
   19.3986   -3.1729    0.0000 C   0  0  0  0  0  0  0  0  0  0  0  0
   20.0814   -4.3577    0.0000 C   0  0  0  0  0  0  0  0  0  0  0  0
   19.3986   -5.4822    0.0000 C   0  0  0  0  0  0  0  0  0  0  0  0
   18.0732   -5.4822    0.0000 C   0  0  0  0  0  0  0  0  0  0  0  0
   17.4306   -2.0483    0.0000 C   0  0  0  0  0  0  0  0  0  0  0  0
   16.0852   -2.0483    0.0000 N   0  0  0  0  0  0  0  0  0  0  0  0
   15.6835   -0.7832    0.0000 N   0  0  0  0  0  0  0  0  0  0  0  0
   16.7479    0.0000    0.0000 N   0  0  0  0  0  0  0  0  0  0  0  0
   17.8122   -0.7832    0.0000 N   0  0  0  0  0  0  0  0  0  0  0  0
    9.2173   -3.9761    0.0000 C   0  0  0  0  0  0  0  0  0  0  0  0
    8.0526   -3.3335    0.0000 O   0  0  0  0  0  0  0  0  0  0  0  0
   10.3620   -3.3335    0.0000 O   0  0  0  0  0  0  0  0  0  0  0  0
    6.9080   -3.9761    0.0000 C   0  0  3  0  0  0  0  0  0  0  0  0
    5.7433   -3.3335    0.0000 O   0  0  0  0  0  0  0  0  0  0  0  0
    4.5786   -3.9761    0.0000 C   0  0  0  0  0  0  0  0  0  0  0  0
    3.4540   -3.3335    0.0000 O   0  0  0  0  0  0  0  0  0  0  0  0
    2.3094   -3.9761    0.0000 C   0  0  0  0  0  0  0  0  0  0  0  0
    6.9080   -5.3216    0.0000 C   0  0  0  0  0  0  0  0  0  0  0  0
    4.5786   -5.3216    0.0000 O   0  0  0  0  0  0  0  0  0  0  0  0
    2.3094   -5.3216    0.0000 C   0  0  0  0  0  0  0  0  0  0  0  0
    1.1446   -6.0043    0.0000 C   0  0  0  0  0  0  0  0  0  0  0  0
    0.0000   -5.3216    0.0000 C   0  0  0  0  0  0  0  0  0  0  0  0
    0.0000   -3.9761    0.0000 C   0  0  0  0  0  0  0  0  0  0  0  0
    1.1446   -3.3335    0.0000 C   0  0  0  0  0  0  0  0  0  0  0  0
  1  2  2  0  0  0  0
  1  4  1  0  0  0  0
  2  3  1  0  0  0  0
  3  6  2  0  0  0  0
  3 31  1  0  0  0  0
  4  5  2  0  0  0  0
  5  6  1  0  0  0  0
  5  9  1  0  0  0  0
  6  7  1  0  0  0  0
  7 13  1  0  0  0  0
  7  8  1  0  0  0  0
  8 10  1  0  0  0  0
  8  9  2  0  0  0  0
 10 11  1  0  0  0  0
 11 12  1  0  0  0  0
 13 14  1  0  0  0  0
 14 15  2  0  0  0  0
 14 19  1  0  0  0  0
 15 16  1  0  0  0  0
 16 17  2  0  0  0  0
 17 18  1  0  0  0  0
 17 20  1  0  0  0  0
 18 19  2  0  0  0  0
 20 25  1  0  0  0  0
 20 21  2  0  0  0  0
 21 22  1  0  0  0  0
 21 26  1  0  0  0  0
 22 23  2  0  0  0  0
 23 24  1  0  0  0  0
 24 25  2  0  0  0  0
 26 27  2  0  0  0  0
 26 30  1  0  0  0  0
 27 28  1  0  0  0  0
 28 29  2  0  0  0  0
 29 30  1  0  0  0  0
 31 32  1  0  0  0  0
 31 33  2  0  0  0  0
 32 34  1  0  0  0  0
 34 35  1  0  0  0  0
 34 39  1  0  0  0  0
 35 36  1  0  0  0  0
 36 37  1  0  0  0  0
 36 40  2  0  0  0  0
 37 38  1  0  0  0  0
 38 41  1  0  0  0  0
 38 45  1  0  0  0  0
 41 42  1  0  0  0  0
 42 43  1  0  0  0  0
 43 44  1  0  0  0  0
 44 45  1  0  0  0  0
M  END
>  <DSSTox_RID>
20239

>  <DSSTox_CID>
239

>  <DSSTox_Generic_SID>
20239

>  <DSSTox_FileID>
245_CPDBAS_v5d

>  <STRUCTURE_Formula>
C33H34N6O6

>  <STRUCTURE_MolecularWeight>
610.6597

>  <STRUCTURE_ChemicalType>
defined organic

>  <STRUCTURE_TestedForm_DefinedOrganic>
parent

>  <STRUCTURE_Shown>
tested chemical

>  <TestSubstance_ChemicalName>
Candesartan cilexetil

>  <TestSubstance_CASRN>
145040-37-5

>  <TestSubstance_Description>
single chemical compound

>  <ChemicalNote>
stereochem, tautomers

>  <STRUCTURE_ChemicalName_IUPAC>
1-{[(cyclohexyloxy)carbonyl]oxy}ethyl 2-(ethyloxy)-1-{[2'-(1H-tetrazol-5-yl)biphenyl-4-yl]methyl}-1H-benzimidazole-7-carboxylate

>  <STRUCTURE_SMILES>
CC(OC(=O)OC1CCCCC1)OC(=O)c5cccc6nc(OCC)n(Cc2ccc(cc2)c3ccccc3C\4=N\N=N/N/4)c56

>  <STRUCTURE_Parent_SMILES>
CC(OC(=O)OC1CCCCC1)OC(=O)c5cccc6nc(OCC)n(Cc2ccc(cc2)c3ccccc3C\4=N\N=N/N/4)c56

>  <STRUCTURE_InChI>
InChI=1/C33H34N6O6/c1-3-42-32-34-28-15-9-14-27(31(40)43-21(2)44-33(41)45-24-10-5-4-6-11-24)29(28)39(32)20-22-16-18-23(19-17-22)25-12-7-8-13-26(25)30-35-37-38-36-30/h7-9,12-19,21,24H,3-6,10-11,20H2,1-2H3,(H,35,36,37,38)/f/h35H

>  <STRUCTURE_InChIKey>
GHOSNRCGJFBJIB-CSKMVECVCD

>  <StudyType>
Carcinogenicity

>  <Endpoint>
TD50; Tumor Target Sites

>  <Species>
rat

>  <ActivityScore_CPDBAS_Rat>
0

>  <TD50_Rat_Note>
no positive results

>  <TargetSites_Rat_Male>
no positive results

>  <TargetSites_Rat_Female>
no positive results

>  <ActivityOutcome_CPDBAS_Rat>
inactive

>  <ActivityOutcome_CPDBAS_SingleCellCall>
inactive

>  <ActivityOutcome_CPDBAS_MultiCellCall>
inactive

>  <ActivityOutcome_CPDBAS_MultiCellCall_Details>
multisex inactive

>  <Note_CPDBAS>
Rat added v2a

>  <ChemicalPage_URL>
http://potency.berkeley.edu/chempages/CANDESARTAN%20CILEXETIL.html

$$$$



  8  8  0  0  0  0  0  0  0  0999 V2000
    0.0000   -1.4934    0.0000 O   0  0  0  0  0  0  0  0  0  0  0  0
    1.3279   -1.4934    0.0000 C   0  0  0  0  0  0  0  0  0  0  0  0
    1.9049   -0.2927    0.0000 C   0  0  0  0  0  0  0  0  0  0  0  0
    3.2031    0.0000    0.0000 C   0  0  0  0  0  0  0  0  0  0  0  0
    4.2426   -0.8273    0.0000 C   0  0  0  0  0  0  0  0  0  0  0  0
    4.2426   -2.1595    0.0000 C   0  0  0  0  0  0  0  0  0  0  0  0
    3.2031   -2.9868    0.0000 C   0  0  0  0  0  0  0  0  0  0  0  0
    1.9049   -2.6898    0.0000 N   0  0  0  0  0  0  0  0  0  0  0  0
  1  2  2  0  0  0  0
  2  3  1  0  0  0  0
  2  8  1  0  0  0  0
  3  4  1  0  0  0  0
  4  5  1  0  0  0  0
  5  6  1  0  0  0  0
  6  7  1  0  0  0  0
  7  8  1  0  0  0  0
M  END
>  <DSSTox_RID>
20240

>  <DSSTox_CID>
240

>  <DSSTox_Generic_SID>
20240

>  <DSSTox_FileID>
246_CPDBAS_v5d

>  <STRUCTURE_Formula>
C6H11NO

>  <STRUCTURE_MolecularWeight>
113.1576

>  <STRUCTURE_ChemicalType>
defined organic

>  <STRUCTURE_TestedForm_DefinedOrganic>
parent

>  <STRUCTURE_Shown>
tested chemical

>  <TestSubstance_ChemicalName>
Caprolactam

>  <TestSubstance_CASRN>
105-60-2

>  <TestSubstance_Description>
single chemical compound

>  <STRUCTURE_ChemicalName_IUPAC>
azepan-2-one

>  <STRUCTURE_SMILES>
O=C1CCCCCN1

>  <STRUCTURE_Parent_SMILES>
O=C1CCCCCN1

>  <STRUCTURE_InChI>
InChI=1/C6H11NO/c8-6-4-2-1-3-5-7-6/h1-5H2,(H,7,8)/f/h7H

>  <STRUCTURE_InChIKey>
JBKVHLHDHHXQEQ-QDQILVOLCX

>  <StudyType>
Carcinogenicity

>  <Endpoint>
TD50; Tumor Target Sites

>  <Species>
rat; mouse

>  <ActivityOutcome_CPDBAS_Mutagenicity>
inactive

>  <ActivityScore_CPDBAS_Rat>
0

>  <TD50_Rat_Note>
no positive results

>  <TargetSites_Rat_Male>
no positive results

>  <TargetSites_Rat_Female>
no positive results

>  <ActivityOutcome_CPDBAS_Rat>
inactive

>  <ActivityScore_CPDBAS_Mouse>
0

>  <TD50_Mouse_Note>
no positive results

>  <TargetSites_Mouse_Male>
no positive results

>  <TargetSites_Mouse_Female>
no positive results

>  <ActivityOutcome_CPDBAS_Mouse>
inactive

>  <ActivityOutcome_CPDBAS_SingleCellCall>
inactive

>  <ActivityOutcome_CPDBAS_MultiCellCall>
inactive

>  <ActivityOutcome_CPDBAS_MultiCellCall_Details>
multisex inactive; multispecies inactive

>  <NTP_TechnicalReport>
TR 214

>  <ChemicalPage_URL>
http://potency.berkeley.edu/chempages/CAPROLACTAM.html

$$$$



 22 22  0  0  0  0  0  0  0  0999 V2000
   14.9750    0.0000    0.0000 O   0  0  0  0  0  0  0  0  0  0  0  0
   13.8220   -0.6739    0.0000 C   0  0  0  0  0  0  0  0  0  0  0  0
   13.8220   -1.9917    0.0000 C   0  0  0  0  0  0  0  0  0  0  0  0
   12.6689   -2.6656    0.0000 C   0  0  0  0  0  0  0  0  0  0  0  0
   11.5158   -1.9917    0.0000 C   0  0  0  0  0  0  0  0  0  0  0  0
   11.5158   -0.6739    0.0000 C   0  0  0  0  0  0  0  0  0  0  0  0
   12.6689    0.0000    0.0000 C   0  0  0  0  0  0  0  0  0  0  0  0
   10.3627   -2.6656    0.0000 C   0  0  0  0  0  0  0  0  0  0  0  0
    9.2097   -1.9917    0.0000 N   0  0  0  0  0  0  0  0  0  0  0  0
    8.0566   -2.6656    0.0000 C   0  0  0  0  0  0  0  0  0  0  0  0
    6.9185   -1.9917    0.0000 O   0  0  0  0  0  0  0  0  0  0  0  0
    8.0566   -3.9983    0.0000 C   0  0  0  0  0  0  0  0  0  0  0  0
    6.9185   -4.6572    0.0000 C   0  0  0  0  0  0  0  0  0  0  0  0
    5.7654   -3.9983    0.0000 C   0  0  0  0  0  0  0  0  0  0  0  0
    4.6123   -4.6572    0.0000 C   0  0  0  0  0  0  0  0  0  0  0  0
    3.4592   -3.9983    0.0000 C   0  0  0  0  0  0  0  0  0  0  0  0
    2.3062   -4.6572    0.0000 C   0  0  0  0  0  0  0  0  0  0  0  0
    1.1531   -3.9983    0.0000 C   0  0  0  0  0  0  0  0  0  0  0  0
    0.0000   -4.6572    0.0000 C   0  0  0  0  0  0  0  0  0  0  0  0
    1.1531   -2.6656    0.0000 C   0  0  0  0  0  0  0  0  0  0  0  0
   14.9750   -2.6656    0.0000 O   0  0  0  0  0  0  0  0  0  0  0  0
   14.9750   -3.9983    0.0000 C   0  0  0  0  0  0  0  0  0  0  0  0
  1  2  1  0  0  0  0
  2  3  2  0  0  0  0
  2  7  1  0  0  0  0
  3  4  1  0  0  0  0
  3 21  1  0  0  0  0
  4  5  2  0  0  0  0
  5  6  1  0  0  0  0
  5  8  1  0  0  0  0
  6  7  2  0  0  0  0
  8  9  1  0  0  0  0
  9 10  1  0  0  0  0
 10 11  2  0  0  0  0
 10 12  1  0  0  0  0
 12 13  1  0  0  0  0
 13 14  1  0  0  0  0
 14 15  1  0  0  0  0
 15 16  1  0  0  0  0
 16 17  2  0  0  0  0
 17 18  1  0  0  0  0
 18 19  1  0  0  0  0
 18 20  1  0  0  0  0
 21 22  1  0  0  0  0
M  END
>  <DSSTox_RID>
20241

>  <DSSTox_CID>
241

>  <DSSTox_Generic_SID>
20241

>  <DSSTox_FileID>
247_CPDBAS_v5d

>  <STRUCTURE_Formula>
C18H27NO3

>  <STRUCTURE_MolecularWeight>
305.4119

>  <STRUCTURE_ChemicalType>
defined organic

>  <STRUCTURE_TestedForm_DefinedOrganic>
parent

>  <STRUCTURE_Shown>
tested chemical

>  <TestSubstance_ChemicalName>
Capsaicin

>  <TestSubstance_CASRN>
404-86-4

>  <TestSubstance_Description>
single chemical compound

>  <STRUCTURE_ChemicalName_IUPAC>
(6E)-N-{[4-hydroxy-3-(methyloxy)phenyl]methyl}-8-methylnon-6-enamide

>  <STRUCTURE_SMILES>
OC1=C(C=C(C=C1)CNC(=O)CCCC/C=C/C(C)C)OC

>  <STRUCTURE_Parent_SMILES>
OC1=C(C=C(C=C1)CNC(=O)CCCC/C=C/C(C)C)OC

>  <STRUCTURE_InChI>
InChI=1/C18H27NO3/c1-14(2)8-6-4-5-7-9-18(21)19-13-15-10-11-16(20)17(12-15)22-3/h6,8,10-12,14,20H,4-5,7,9,13H2,1-3H3,(H,19,21)/b8-6+/f/h19H

>  <STRUCTURE_InChIKey>
YKPUWZUDDOIDPM-ZDGHGLDFDE

>  <StudyType>
Carcinogenicity

>  <Endpoint>
TD50; Tumor Target Sites

>  <Species>
mouse

>  <ActivityOutcome_CPDBAS_Mutagenicity>
inactive

>  <TD50_Mouse_mg>
167

>  <TD50_Mouse_mmol>
0.547

>  <ActivityScore_CPDBAS_Mouse>
31

>  <TD50_Mouse_Note>
TD50 is harmonic mean of more than one positive test; no positive results are statistically significant

>  <TargetSites_Mouse_Male>
large intestine

>  <TargetSites_Mouse_Female>
large intestine

>  <ActivityOutcome_CPDBAS_Mouse>
active

>  <ActivityOutcome_CPDBAS_SingleCellCall>
active

>  <ActivityOutcome_CPDBAS_MultiCellCall>
active

>  <ActivityOutcome_CPDBAS_MultiCellCall_Details>
multisex active

>  <Note_CPDBAS>
Mutagenicity_SAL_CPDB added v3a

>  <ChemicalPage_URL>
http://potency.berkeley.edu/chempages/CAPSAICIN.html

$$$$



 18 19  0  0  0  0  0  0  0  0999 V2000
    2.3001   -1.6689    0.0000 C   0  0  3  0  0  0  0  0  0  0  0  0
    2.3001   -3.0006    0.0000 C   0  0  3  0  0  0  0  0  0  0  0  0
    3.5713   -3.4156    0.0000 C   0  0  0  0  0  0  0  0  0  0  0  0
    3.9777   -4.6781    0.0000 O   0  0  0  0  0  0  0  0  0  0  0  0
    4.3495   -2.3347    0.0000 N   0  0  0  0  0  0  0  0  0  0  0  0
    3.5713   -1.2625    0.0000 C   0  0  0  0  0  0  0  0  0  0  0  0
    3.9777    0.0000    0.0000 O   0  0  0  0  0  0  0  0  0  0  0  0
    5.6812   -2.3347    0.0000 S   0  0  0  0  0  0  0  0  0  0  0  0
    6.3470   -3.4935    0.0000 C   0  0  0  0  0  0  0  0  0  0  0  0
    7.4971   -2.8276    0.0000 C   0  0  0  0  0  0  0  0  0  0  0  0
    7.4971   -1.4960    0.0000 Cl  0  0  0  0  0  0  0  0  0  0  0  0
    8.6472   -3.4935    0.0000 Cl  0  0  0  0  0  0  0  0  0  0  0  0
    7.0128   -4.6435    0.0000 Cl  0  0  0  0  0  0  0  0  0  0  0  0
    5.1883   -4.1506    0.0000 Cl  0  0  0  0  0  0  0  0  0  0  0  0
    1.1501   -3.6664    0.0000 C   0  0  0  0  0  0  0  0  0  0  0  0
    0.0000   -3.0006    0.0000 C   0  0  0  0  0  0  0  0  0  0  0  0
    0.0000   -1.6689    0.0000 C   0  0  0  0  0  0  0  0  0  0  0  0
    1.1501   -1.0117    0.0000 C   0  0  0  0  0  0  0  0  0  0  0  0
  1  2  1  0  0  0  0
  1  6  1  0  0  0  0
  1 18  1  0  0  0  0
  2  3  1  0  0  0  0
  2 15  1  0  0  0  0
  3  4  2  0  0  0  0
  3  5  1  0  0  0  0
  5  6  1  0  0  0  0
  5  8  1  0  0  0  0
  6  7  2  0  0  0  0
  8  9  1  0  0  0  0
  9 10  1  0  0  0  0
  9 13  1  0  0  0  0
  9 14  1  0  0  0  0
 10 11  1  0  0  0  0
 10 12  1  0  0  0  0
 15 16  1  0  0  0  0
 16 17  2  0  0  0  0
 17 18  1  0  0  0  0
M  END
>  <DSSTox_RID>
20242

>  <DSSTox_CID>
242

>  <DSSTox_Generic_SID>
20242

>  <DSSTox_FileID>
248_CPDBAS_v5d

>  <STRUCTURE_Formula>
C10H9Cl4NO2S

>  <STRUCTURE_MolecularWeight>
349.0586

>  <STRUCTURE_ChemicalType>
defined organic

>  <STRUCTURE_TestedForm_DefinedOrganic>
parent

>  <STRUCTURE_Shown>
tested chemical

>  <TestSubstance_ChemicalName>
Captafol

>  <TestSubstance_CASRN>
2425-06-1

>  <TestSubstance_Description>
single chemical compound

>  <STRUCTURE_ChemicalName_IUPAC>
2-[(1,1,2,2-tetrachloroethyl)thio]-3a,4,7,7a-tetrahydro-1H-isoindole-1,3(2H)-dione

>  <STRUCTURE_SMILES>
C12C(C(=O)N(C1=O)SC(C(Cl)Cl)(Cl)Cl)C\C=C/C2

>  <STRUCTURE_Parent_SMILES>
C12C(C(=O)N(C1=O)SC(C(Cl)Cl)(Cl)Cl)C\C=C/C2

>  <STRUCTURE_InChI>
InChI=1/C10H9Cl4NO2S/c11-9(12)10(13,14)18-15-7(16)5-3-1-2-4-6(5)8(15)17/h1-2,5-6,9H,3-4H2

>  <STRUCTURE_InChIKey>
JHRWWRDRBPCWTF-UHFFFAOYAR

>  <StudyType>
Carcinogenicity

>  <Endpoint>
TD50; Tumor Target Sites

>  <Species>
rat; mouse

>  <ActivityOutcome_CPDBAS_Mutagenicity>
inactive

>  <TD50_Rat_mg>
73.4

>  <TD50_Rat_mmol>
0.21

>  <ActivityScore_CPDBAS_Rat>
33

>  <TD50_Rat_Note>
TD50 is harmonic mean of more than one positive test; greater than ten-fold variation among TD50 values for positive results

>  <TargetSites_Rat_Male>
kidney; liver

>  <TargetSites_Rat_Female>
kidney; liver; mammary gland

>  <ActivityOutcome_CPDBAS_Rat>
active

>  <TD50_Mouse_mg>
178

>  <TD50_Mouse_mmol>
0.51

>  <ActivityScore_CPDBAS_Mouse>
32

>  <TD50_Mouse_Note>
TD50 is harmonic mean of more than one positive test; greater than ten-fold variation among TD50 values for positive results

>  <TargetSites_Mouse_Male>
harderian gland; hematopoietic system; liver; small intestine; stomach; vascular system

>  <TargetSites_Mouse_Female>
hematopoietic system; liver; small intestine; stomach; vascular system

>  <ActivityOutcome_CPDBAS_Mouse>
active

>  <ActivityOutcome_CPDBAS_SingleCellCall>
active

>  <ActivityOutcome_CPDBAS_MultiCellCall>
active

>  <ActivityOutcome_CPDBAS_MultiCellCall_Details>
multisite active; multisex active; multispecies active

>  <ChemicalPage_URL>
http://potency.berkeley.edu/chempages/CAPTAFOL.html

$$$$



 16 17  0  0  0  0  0  0  0  0999 V2000
    4.9479   -4.0566    0.0000 O   0  0  0  0  0  0  0  0  0  0  0  0
    3.9584   -3.1652    0.0000 C   0  0  0  0  0  0  0  0  0  0  0  0
    4.1019   -1.8432    0.0000 N   0  0  0  0  0  0  0  0  0  0  0  0
    2.8857   -1.2993    0.0000 C   0  0  0  0  0  0  0  0  0  0  0  0
    2.6062    0.0000    0.0000 O   0  0  0  0  0  0  0  0  0  0  0  0
    1.9943   -2.2889    0.0000 C   0  0  3  0  0  0  0  0  0  0  0  0
    2.6590   -3.4447    0.0000 C   0  0  3  0  0  0  0  0  0  0  0  0
    1.9943   -4.5929    0.0000 C   0  0  0  0  0  0  0  0  0  0  0  0
    0.6648   -4.5929    0.0000 C   0  0  0  0  0  0  0  0  0  0  0  0
    0.0000   -3.4447    0.0000 C   0  0  0  0  0  0  0  0  0  0  0  0
    0.6648   -2.2889    0.0000 C   0  0  0  0  0  0  0  0  0  0  0  0
    5.2501   -1.1784    0.0000 S   0  0  0  0  0  0  0  0  0  0  0  0
    6.4059   -1.8432    0.0000 C   0  0  0  0  0  0  0  0  0  0  0  0
    7.0707   -0.6874    0.0000 Cl  0  0  0  0  0  0  0  0  0  0  0  0
    7.5541   -2.5080    0.0000 Cl  0  0  0  0  0  0  0  0  0  0  0  0
    5.7411   -2.9914    0.0000 Cl  0  0  0  0  0  0  0  0  0  0  0  0
  1  2  2  0  0  0  0
  2  3  1  0  0  0  0
  2  7  1  0  0  0  0
  3  4  1  0  0  0  0
  3 12  1  0  0  0  0
  4  5  2  0  0  0  0
  4  6  1  0  0  0  0
  6  7  1  0  0  0  0
  6 11  1  0  0  0  0
  7  8  1  0  0  0  0
  8  9  1  0  0  0  0
  9 10  2  0  0  0  0
 10 11  1  0  0  0  0
 12 13  1  0  0  0  0
 13 14  1  0  0  0  0
 13 15  1  0  0  0  0
 13 16  1  0  0  0  0
M  END
>  <DSSTox_RID>
20243

>  <DSSTox_CID>
243

>  <DSSTox_Generic_SID>
20243

>  <DSSTox_FileID>
249_CPDBAS_v5d

>  <STRUCTURE_Formula>
C9H8Cl3NO2S

>  <STRUCTURE_MolecularWeight>
300.5893

>  <STRUCTURE_ChemicalType>
defined organic

>  <STRUCTURE_TestedForm_DefinedOrganic>
parent

>  <STRUCTURE_Shown>
tested chemical

>  <TestSubstance_ChemicalName>
Captan

>  <TestSubstance_CASRN>
133-06-2

>  <TestSubstance_Description>
single chemical compound

>  <STRUCTURE_ChemicalName_IUPAC>
2-[(trichloromethyl)thio]-3a,4,7,7a-tetrahydro-1H-isoindole-1,3(2H)-dione

>  <STRUCTURE_SMILES>
O=C1N(C(=O)C2C1CC=CC2)SC(Cl)(Cl)Cl

>  <STRUCTURE_Parent_SMILES>
O=C1N(C(=O)C2C1CC=CC2)SC(Cl)(Cl)Cl

>  <STRUCTURE_InChI>
InChI=1/C9H8Cl3NO2S/c10-9(11,12)16-13-7(14)5-3-1-2-4-6(5)8(13)15/h1-2,5-6H,3-4H2

>  <STRUCTURE_InChIKey>
LDVVMCZRFWMZSG-UHFFFAOYAB

>  <StudyType>
Carcinogenicity

>  <Endpoint>
TD50; Tumor Target Sites

>  <Species>
rat; mouse

>  <ActivityOutcome_CPDBAS_Mutagenicity>
active

>  <TD50_Rat_mg>
2080

>  <TD50_Rat_mmol>
6.92

>  <ActivityScore_CPDBAS_Rat>
17

>  <TD50_Rat_Note>
TD50 is harmonic mean of more than one positive test

>  <TargetSites_Rat_Male>
kidney

>  <TargetSites_Rat_Female>
uterus

>  <ActivityOutcome_CPDBAS_Rat>
active

>  <TD50_Mouse_mg>
2110

>  <TD50_Mouse_mmol>
7.02

>  <ActivityScore_CPDBAS_Mouse>
19

>  <TD50_Mouse_Note>
TD50 is harmonic mean of more than one positive test

>  <TargetSites_Mouse_Male>
small intestine

>  <TargetSites_Mouse_Female>
small intestine

>  <ActivityOutcome_CPDBAS_Mouse>
active

>  <ActivityOutcome_CPDBAS_SingleCellCall>
active

>  <ActivityOutcome_CPDBAS_MultiCellCall>
active

>  <ActivityOutcome_CPDBAS_MultiCellCall_Details>
multisite active; multisex active; multispecies active

>  <NTP_TechnicalReport>
TR 15; final call in CPDB differs due to additional data

>  <ChemicalPage_URL>
http://potency.berkeley.edu/chempages/CAPTAN.html

$$$$



 11 11  0  0  0  0  0  0  0  0999 V2000
    0.0000   -2.3079    0.0000 N   0  0  0  0  0  0  0  0  0  0  0  0
    0.6651   -1.1573    0.0000 C   0  0  0  0  0  0  0  0  0  0  0  0
    0.0000    0.0000    0.0000 O   0  0  0  0  0  0  0  0  0  0  0  0
    1.9953   -1.1573    0.0000 N   0  0  0  0  0  0  0  0  0  0  0  0
    2.6605   -2.3079    0.0000 N   0  0  0  0  0  0  0  0  0  0  0  0
    3.9907   -2.3079    0.0000 C   0  0  0  0  0  0  0  0  0  0  0  0
    4.6558   -1.1573    0.0000 C   0  0  0  0  0  0  0  0  0  0  0  0
    5.9860   -1.1573    0.0000 C   0  0  0  0  0  0  0  0  0  0  0  0
    6.6511   -2.3079    0.0000 C   0  0  0  0  0  0  0  0  0  0  0  0
    5.9860   -3.4586    0.0000 C   0  0  0  0  0  0  0  0  0  0  0  0
    4.6558   -3.4586    0.0000 C   0  0  0  0  0  0  0  0  0  0  0  0
  1  2  1  0  0  0  0
  2  3  2  0  0  0  0
  2  4  1  0  0  0  0
  4  5  1  0  0  0  0
  5  6  1  0  0  0  0
  6  7  2  0  0  0  0
  6 11  1  0  0  0  0
  7  8  1  0  0  0  0
  8  9  2  0  0  0  0
  9 10  1  0  0  0  0
 10 11  2  0  0  0  0
M  END
>  <DSSTox_RID>
20245

>  <DSSTox_CID>
245

>  <DSSTox_Generic_SID>
20245

>  <DSSTox_FileID>
251_CPDBAS_v5d

>  <STRUCTURE_Formula>
C7H9N3O

>  <STRUCTURE_MolecularWeight>
151.1676

>  <STRUCTURE_ChemicalType>
defined organic

>  <STRUCTURE_TestedForm_DefinedOrganic>
parent

>  <STRUCTURE_Shown>
tested chemical

>  <TestSubstance_ChemicalName>
1-Carbamyl-2-phenylhydrazine

>  <TestSubstance_CASRN>
103-03-7

>  <TestSubstance_Description>
single chemical compound

>  <STRUCTURE_ChemicalName_IUPAC>
2-phenylhydrazinecarboxamide

>  <STRUCTURE_SMILES>
NC(=O)NNC1=CC=CC=C1

>  <STRUCTURE_Parent_SMILES>
NC(=O)NNC1=CC=CC=C1

>  <STRUCTURE_InChI>
InChI=1/C7H9N3O/c8-7(11)10-9-6-4-2-1-3-5-6/h1-5,9H,(H3,8,10,11)/f/h10H,8H2

>  <STRUCTURE_InChIKey>
AVKHCKXGKPAGEI-HBHMGDMRCY

>  <StudyType>
Carcinogenicity

>  <Endpoint>
TD50; Tumor Target Sites

>  <Species>
mouse

>  <TD50_Mouse_mg>
165

>  <TD50_Mouse_mmol>
1.09

>  <ActivityScore_CPDBAS_Mouse>
28

>  <TD50_Mouse_Note>
TD50 is harmonic mean of more than one positive test

>  <TargetSites_Mouse_Male>
lung

>  <TargetSites_Mouse_Female>
lung

>  <ActivityOutcome_CPDBAS_Mouse>
active

>  <ActivityOutcome_CPDBAS_SingleCellCall>
active

>  <ActivityOutcome_CPDBAS_MultiCellCall>
active

>  <ActivityOutcome_CPDBAS_MultiCellCall_Details>
multisex active

>  <ChemicalPage_URL>
http://potency.berkeley.edu/chempages/1-CARBAMYL-2-PHENYLHYDRAZINE.html

$$$$



 15 16  0  0  0  0  0  0  0  0999 V2000
    1.1543   -0.6704    0.0000 O   0  0  0  0  0  0  0  0  0  0  0  0
    1.1543   -1.9975    0.0000 C   0  0  0  0  0  0  0  0  0  0  0  0
    2.3016   -2.6610    0.0000 O   0  0  0  0  0  0  0  0  0  0  0  0
    3.4559   -1.9975    0.0000 C   0  0  0  0  0  0  0  0  0  0  0  0
    4.6102   -2.6610    0.0000 C   0  0  0  0  0  0  0  0  0  0  0  0
    5.7575   -1.9975    0.0000 C   0  0  0  0  0  0  0  0  0  0  0  0
    5.7575   -0.6704    0.0000 C   0  0  0  0  0  0  0  0  0  0  0  0
    4.6102    0.0000    0.0000 C   0  0  0  0  0  0  0  0  0  0  0  0
    3.4559   -0.6704    0.0000 C   0  0  0  0  0  0  0  0  0  0  0  0
    6.9118   -2.6610    0.0000 C   0  0  0  0  0  0  0  0  0  0  0  0
    6.9118   -3.9950    0.0000 C   0  0  0  0  0  0  0  0  0  0  0  0
    5.7575   -4.6585    0.0000 C   0  0  0  0  0  0  0  0  0  0  0  0
    4.6102   -3.9950    0.0000 C   0  0  0  0  0  0  0  0  0  0  0  0
    0.0000   -2.6610    0.0000 N   0  0  0  0  0  0  0  0  0  0  0  0
    0.0000   -3.9950    0.0000 C   0  0  0  0  0  0  0  0  0  0  0  0
  1  2  2  0  0  0  0
  2  3  1  0  0  0  0
  2 14  1  0  0  0  0
  3  4  1  0  0  0  0
  4  5  2  0  0  0  0
  4  9  1  0  0  0  0
  5  6  1  0  0  0  0
  5 13  1  0  0  0  0
  6  7  2  0  0  0  0
  6 10  1  0  0  0  0
  7  8  1  0  0  0  0
  8  9  2  0  0  0  0
 10 11  2  0  0  0  0
 11 12  1  0  0  0  0
 12 13  2  0  0  0  0
 14 15  1  0  0  0  0
M  END
>  <DSSTox_RID>
20247

>  <DSSTox_CID>
247

>  <DSSTox_Generic_SID>
20247

>  <DSSTox_FileID>
253_CPDBAS_v5d

>  <STRUCTURE_Formula>
C12H11NO2

>  <STRUCTURE_MolecularWeight>
201.2212

>  <STRUCTURE_ChemicalType>
defined organic

>  <STRUCTURE_TestedForm_DefinedOrganic>
parent

>  <STRUCTURE_Shown>
tested chemical

>  <TestSubstance_ChemicalName>
Carbaryl

>  <TestSubstance_CASRN>
63-25-2

>  <TestSubstance_Description>
single chemical compound

>  <STRUCTURE_ChemicalName_IUPAC>
naphthalen-1-yl methylcarbamate

>  <STRUCTURE_SMILES>
O=C(OC1=C2C(=CC=C1)C=CC=C2)NC

>  <STRUCTURE_Parent_SMILES>
O=C(OC1=C2C(=CC=C1)C=CC=C2)NC

>  <STRUCTURE_InChI>
InChI=1/C12H11NO2/c1-13-12(14)15-11-8-4-6-9-5-2-3-7-10(9)11/h2-8H,1H3,(H,13,14)/f/h13H

>  <STRUCTURE_InChIKey>
CVXBEEMKQHEXEN-NDKGDYFDCM

>  <StudyType>
Carcinogenicity

>  <Endpoint>
TD50; Tumor Target Sites

>  <Species>
rat; mouse

>  <ActivityOutcome_CPDBAS_Mutagenicity>
active

>  <TD50_Rat_mg>
14.1

>  <TD50_Rat_mmol>
0.0701

>  <ActivityScore_CPDBAS_Rat>
38

>  <TargetSites_Rat_BothSexes>
all tumor bearing animals

>  <ActivityOutcome_CPDBAS_Rat>
active

>  <ActivityScore_CPDBAS_Mouse>
0

>  <TD50_Mouse_Note>
no positive results

>  <TargetSites_Mouse_Male>
no positive results

>  <TargetSites_Mouse_Female>
no positive results

>  <ActivityOutcome_CPDBAS_Mouse>
inactive

>  <ActivityOutcome_CPDBAS_SingleCellCall>
active

>  <ChemicalPage_URL>
http://potency.berkeley.edu/chempages/CARBARYL.html

$$$$



 13 15  0  0  0  0  0  0  0  0999 V2000
    3.7329   -2.1413    0.0000 C   0  0  0  0  0  0  0  0  0  0  0  0
    2.4289   -1.8664    0.0000 C   0  0  0  0  0  0  0  0  0  0  0  0
    2.2883   -0.5433    0.0000 C   0  0  0  0  0  0  0  0  0  0  0  0
    1.0738    0.0000    0.0000 C   0  0  0  0  0  0  0  0  0  0  0  0
    0.0000   -0.7798    0.0000 C   0  0  0  0  0  0  0  0  0  0  0  0
    0.1406   -2.1029    0.0000 C   0  0  0  0  0  0  0  0  0  0  0  0
    1.3551   -2.6462    0.0000 C   0  0  0  0  0  0  0  0  0  0  0  0
    3.5091    0.0000    0.0000 N   0  0  0  0  0  0  0  0  0  0  0  0
    4.3976   -0.9907    0.0000 C   0  0  0  0  0  0  0  0  0  0  0  0
    5.7271   -0.9907    0.0000 C   0  0  0  0  0  0  0  0  0  0  0  0
    6.3919   -2.1413    0.0000 C   0  0  0  0  0  0  0  0  0  0  0  0
    5.7271   -3.2918    0.0000 C   0  0  0  0  0  0  0  0  0  0  0  0
    4.3976   -3.2918    0.0000 C   0  0  0  0  0  0  0  0  0  0  0  0
  1  2  1  0  0  0  0
  1  9  1  0  0  0  0
  1 13  2  0  0  0  0
  2  3  2  0  0  0  0
  2  7  1  0  0  0  0
  3  4  1  0  0  0  0
  3  8  1  0  0  0  0
  4  5  2  0  0  0  0
  5  6  1  0  0  0  0
  6  7  2  0  0  0  0
  8  9  1  0  0  0  0
  9 10  2  0  0  0  0
 10 11  1  0  0  0  0
 11 12  2  0  0  0  0
 12 13  1  0  0  0  0
M  END
>  <DSSTox_RID>
20248

>  <DSSTox_CID>
248

>  <DSSTox_Generic_SID>
20248

>  <DSSTox_FileID>
254_CPDBAS_v5d

>  <STRUCTURE_Formula>
C12H9N

>  <STRUCTURE_MolecularWeight>
167.2066

>  <STRUCTURE_ChemicalType>
defined organic

>  <STRUCTURE_TestedForm_DefinedOrganic>
parent

>  <STRUCTURE_Shown>
tested chemical

>  <TestSubstance_ChemicalName>
Carbazole

>  <TestSubstance_CASRN>
86-74-8

>  <TestSubstance_Description>
single chemical compound

>  <STRUCTURE_ChemicalName_IUPAC>
9H-carbazole

>  <STRUCTURE_SMILES>
C12C3=C(C=CC=C3)NC1=CC=CC=2

>  <STRUCTURE_Parent_SMILES>
C12C3=C(C=CC=C3)NC1=CC=CC=2

>  <STRUCTURE_InChI>
InChI=1/C12H9N/c1-3-7-11-9(5-1)10-6-2-4-8-12(10)13-11/h1-8,13H

>  <STRUCTURE_InChIKey>
UJOBWOGCFQCDNV-UHFFFAOYAV

>  <StudyType>
Carcinogenicity

>  <Endpoint>
TD50; Tumor Target Sites

>  <Species>
mouse

>  <ActivityOutcome_CPDBAS_Mutagenicity>
inactive

>  <TD50_Mouse_mg>
164

>  <TD50_Mouse_mmol>
0.981

>  <ActivityScore_CPDBAS_Mouse>
28

>  <TD50_Mouse_Note>
TD50 is harmonic mean of more than one positive test

>  <TargetSites_Mouse_Male>
liver; stomach

>  <TargetSites_Mouse_Female>
liver; stomach

>  <ActivityOutcome_CPDBAS_Mouse>
active

>  <ActivityOutcome_CPDBAS_SingleCellCall>
active

>  <ActivityOutcome_CPDBAS_MultiCellCall>
active

>  <ActivityOutcome_CPDBAS_MultiCellCall_Details>
multisite active; multisex active

>  <ChemicalPage_URL>
http://potency.berkeley.edu/chempages/CARBAZOLE.html

$$$$



 16 17  0  0  0  0  0  0  0  0999 V2000
    1.1508    0.0000    0.0000 O   0  0  0  0  0  0  0  0  0  0  0  0
    1.1508   -1.3238    0.0000 C   0  0  0  0  0  0  0  0  0  0  0  0
    0.0000   -1.9890    0.0000 N   0  0  0  0  0  0  0  0  0  0  0  0
    0.0000   -3.3195    0.0000 C   0  0  0  0  0  0  0  0  0  0  0  0
    2.3017   -1.9890    0.0000 O   0  0  0  0  0  0  0  0  0  0  0  0
    2.3017   -3.3195    0.0000 C   0  0  0  0  0  0  0  0  0  0  0  0
    1.1508   -3.9847    0.0000 C   0  0  0  0  0  0  0  0  0  0  0  0
    1.1508   -5.3151    0.0000 C   0  0  0  0  0  0  0  0  0  0  0  0
    2.3017   -5.9803    0.0000 C   0  0  0  0  0  0  0  0  0  0  0  0
    3.4525   -5.3151    0.0000 C   0  0  0  0  0  0  0  0  0  0  0  0
    4.7231   -5.7276    0.0000 C   0  0  0  0  0  0  0  0  0  0  0  0
    3.4525   -3.9847    0.0000 C   0  0  0  0  0  0  0  0  0  0  0  0
    4.7231   -3.5722    0.0000 O   0  0  0  0  0  0  0  0  0  0  0  0
    5.5014   -4.6499    0.0000 C   0  0  0  0  0  0  0  0  0  0  0  0
    6.6522   -5.3151    0.0000 C   0  0  0  0  0  0  0  0  0  0  0  0
    6.6522   -3.9847    0.0000 C   0  0  0  0  0  0  0  0  0  0  0  0
  1  2  2  0  0  0  0
  2  3  1  0  0  0  0
  2  5  1  0  0  0  0
  3  4  1  0  0  0  0
  5  6  1  0  0  0  0
  6  7  2  0  0  0  0
  6 12  1  0  0  0  0
  7  8  1  0  0  0  0
  8  9  2  0  0  0  0
  9 10  1  0  0  0  0
 10 11  1  0  0  0  0
 10 12  2  0  0  0  0
 11 14  1  0  0  0  0
 12 13  1  0  0  0  0
 13 14  1  0  0  0  0
 14 15  1  0  0  0  0
 14 16  1  0  0  0  0
M  END
>  <DSSTox_RID>
20249

>  <DSSTox_CID>
249

>  <DSSTox_Generic_SID>
20249

>  <DSSTox_FileID>
255_CPDBAS_v5d

>  <STRUCTURE_Formula>
C12H15NO3

>  <STRUCTURE_MolecularWeight>
221.2524

>  <STRUCTURE_ChemicalType>
defined organic

>  <STRUCTURE_TestedForm_DefinedOrganic>
parent

>  <STRUCTURE_Shown>
tested chemical

>  <TestSubstance_ChemicalName>
Carbofuran

>  <TestSubstance_CASRN>
1563-66-2

>  <TestSubstance_Description>
single chemical compound

>  <STRUCTURE_ChemicalName_IUPAC>
2,2-dimethyl-2,3-dihydro-1-benzofuran-7-yl methylcarbamate

>  <STRUCTURE_SMILES>
O=C(NC)OC1=CC=CC(C2)=C1OC2(C)C

>  <STRUCTURE_Parent_SMILES>
O=C(NC)OC1=CC=CC(C2)=C1OC2(C)C

>  <STRUCTURE_InChI>
InChI=1/C12H15NO3/c1-12(2)7-8-5-4-6-9(10(8)16-12)15-11(14)13-3/h4-6H,7H2,1-3H3,(H,13,14)/f/h13H

>  <STRUCTURE_InChIKey>
DUEPRVBVGDRKAG-NDKGDYFDCO

>  <StudyType>
Carcinogenicity

>  <Endpoint>
TD50; Tumor Target Sites

>  <Species>
mouse

>  <ActivityScore_CPDBAS_Mouse>
0

>  <TD50_Mouse_Note>
no positive results

>  <TargetSites_Mouse_Male>
no positive results

>  <TargetSites_Mouse_Female>
no positive results

>  <ActivityOutcome_CPDBAS_Mouse>
inactive

>  <ActivityOutcome_CPDBAS_SingleCellCall>
inactive

>  <ActivityOutcome_CPDBAS_MultiCellCall>
inactive

>  <ActivityOutcome_CPDBAS_MultiCellCall_Details>
multisex inactive

>  <Note_CPDBAS>
Mouse added v3a; chemical added v3a

>  <ChemicalPage_URL>
http://potency.berkeley.edu/chempages/CARBOFURAN.html

$$$$



  5  4  0  0  0  0  0  0  0  0999 V2000
    1.3300   -2.6600    0.0000 Cl  0  0  0  0  0  0  0  0  0  0  0  0
    1.3300   -1.3300    0.0000 C   0  0  0  0  0  0  0  0  0  0  0  0
    0.0000   -1.3300    0.0000 Cl  0  0  0  0  0  0  0  0  0  0  0  0
    1.3300    0.0000    0.0000 Cl  0  0  0  0  0  0  0  0  0  0  0  0
    2.6600   -1.3300    0.0000 Cl  0  0  0  0  0  0  0  0  0  0  0  0
  1  2  1  0  0  0  0
  2  3  1  0  0  0  0
  2  4  1  0  0  0  0
  2  5  1  0  0  0  0
M  END
>  <DSSTox_RID>
20250

>  <DSSTox_CID>
250

>  <DSSTox_Generic_SID>
20250

>  <DSSTox_FileID>
256_CPDBAS_v5d

>  <STRUCTURE_Formula>
CCl4

>  <STRUCTURE_MolecularWeight>
153.8227

>  <STRUCTURE_ChemicalType>
defined organic

>  <STRUCTURE_TestedForm_DefinedOrganic>
parent

>  <STRUCTURE_Shown>
tested chemical

>  <TestSubstance_ChemicalName>
Carbon tetrachloride

>  <TestSubstance_CASRN>
56-23-5

>  <TestSubstance_Description>
single chemical compound

>  <STRUCTURE_ChemicalName_IUPAC>
tetrachloromethane

>  <STRUCTURE_SMILES>
ClC(Cl)(Cl)Cl

>  <STRUCTURE_Parent_SMILES>
ClC(Cl)(Cl)Cl

>  <STRUCTURE_InChI>
InChI=1/CCl4/c2-1(3,4)5

>  <STRUCTURE_InChIKey>
VZGDMQKNWNREIO-UHFFFAOYAV

>  <StudyType>
Carcinogenicity

>  <Endpoint>
TD50; Tumor Target Sites

>  <Species>
rat; mouse

>  <ActivityOutcome_CPDBAS_Mutagenicity>
inactive

>  <TD50_Rat_mg>
27.8

>  <TD50_Rat_mmol>
0.181

>  <ActivityScore_CPDBAS_Rat>
33

>  <TD50_Rat_Note>
TD50 is harmonic mean of more than one positive test

>  <TargetSites_Rat_Male>
liver

>  <TargetSites_Rat_Female>
liver; mammary gland

>  <ActivityOutcome_CPDBAS_Rat>
active

>  <TD50_Mouse_mg>
33.6

>  <TD50_Mouse_mmol>
0.218

>  <ActivityScore_CPDBAS_Mouse>
36

>  <TD50_Mouse_Note>
TD50 is harmonic mean of more than one positive test; greater than ten-fold variation among TD50 values for positive results

>  <TargetSites_Mouse_Male>
adrenal gland; liver

>  <TargetSites_Mouse_Female>
adrenal gland; liver

>  <ActivityOutcome_CPDBAS_Mouse>
active

>  <ActivityOutcome_CPDBAS_SingleCellCall>
active

>  <ActivityOutcome_CPDBAS_MultiCellCall>
active

>  <ActivityOutcome_CPDBAS_MultiCellCall_Details>
multisite active; multisex active; multispecies active

>  <Note_CPDBAS>
TD50_Rat modified v5a; TD50_Mouse modified v5a

>  <ChemicalPage_URL>
http://potency.berkeley.edu/chempages/CARBON%20TETRACHLORIDE.html

$$$$



 10  9  0  0  0  0  0  0  0  0999 V2000
    2.3042   -1.9989    0.0000 N   0  0  0  0  0  0  0  0  0  0  0  0
    2.3042   -0.6682    0.0000 C   0  0  0  0  0  0  0  0  0  0  0  0
    3.4563    0.0000    0.0000 O   0  0  0  0  0  0  0  0  0  0  0  0
    1.1521    0.0000    0.0000 N   0  0  0  0  0  0  0  0  0  0  0  0
    1.1521   -2.6614    0.0000 N   0  0  0  0  0  0  0  0  0  0  0  0
    0.0000   -1.9989    0.0000 O   0  0  0  0  0  0  0  0  0  0  0  0
    3.4563   -2.6614    0.0000 C   0  0  0  0  0  0  0  0  0  0  0  0
    4.6084   -1.9989    0.0000 C   0  0  0  0  0  0  0  0  0  0  0  0
    4.6084   -0.6682    0.0000 O   0  0  0  0  0  0  0  0  0  0  0  0
    5.7605   -2.6614    0.0000 O   0  0  0  0  0  0  0  0  0  0  0  0
  1  2  1  0  0  0  0
  1  5  1  0  0  0  0
  1  7  1  0  0  0  0
  2  3  2  0  0  0  0
  2  4  1  0  0  0  0
  5  6  2  0  0  0  0
  7  8  1  0  0  0  0
  8  9  2  0  0  0  0
  8 10  1  0  0  0  0
M  END
>  <DSSTox_RID>
20251

>  <DSSTox_CID>
251

>  <DSSTox_Generic_SID>
20251

>  <DSSTox_FileID>
257_CPDBAS_v5d

>  <STRUCTURE_Formula>
C3H5N3O4

>  <STRUCTURE_MolecularWeight>
147.0902

>  <STRUCTURE_ChemicalType>
defined organic

>  <STRUCTURE_TestedForm_DefinedOrganic>
parent

>  <STRUCTURE_Shown>
tested chemical

>  <TestSubstance_ChemicalName>
Carboxymethylnitrosourea

>  <TestSubstance_CASRN>
60391-92-6

>  <TestSubstance_Description>
single chemical compound

>  <STRUCTURE_ChemicalName_IUPAC>
[(aminocarbonyl)(nitroso)amino]acetic acid

>  <STRUCTURE_SMILES>
N(C(=O)N)(N=O)CC(=O)O

>  <STRUCTURE_Parent_SMILES>
N(C(=O)N)(N=O)CC(=O)O

>  <STRUCTURE_InChI>
InChI=1/C3H5N3O4/c4-3(9)6(5-10)1-2(7)8/h1H2,(H2,4,9)(H,7,8)/f/h7H,4H2

>  <STRUCTURE_InChIKey>
JWFMCQPAQYKFDP-VUIBCSDUCY

>  <StudyType>
Carcinogenicity

>  <Endpoint>
TD50; Tumor Target Sites

>  <Species>
rat

>  <ActivityOutcome_CPDBAS_Mutagenicity>
inactive

>  <TD50_Rat_mg>
4.31

>  <TD50_Rat_mmol>
0.0293

>  <ActivityScore_CPDBAS_Rat>
42

>  <TD50_Rat_Note>
TD50 is harmonic mean of more than one positive test; greater than ten-fold variation among TD50 values for positive results

>  <TargetSites_Rat_Male>
skin

>  <TargetSites_Rat_Female>
mammary gland; small intestine

>  <ActivityOutcome_CPDBAS_Rat>
active

>  <ActivityOutcome_CPDBAS_SingleCellCall>
active

>  <ActivityOutcome_CPDBAS_MultiCellCall>
active

>  <ActivityOutcome_CPDBAS_MultiCellCall_Details>
multisite active; multisex active

>  <ChemicalPage_URL>
http://potency.berkeley.edu/chempages/CARBOXYMETHYLNITROSOUREA.html

$$$$



 12 11  0  0  0  0  0  0  0  0999 V2000
    3.3254   -1.9916    0.0000 Br  0  0  0  0  0  0  0  0  0  0  0  0
    1.9916   -1.9916    0.0000 C   0  0  0  0  0  0  0  0  0  0  0  0
    1.9916   -3.3254    0.0000 C   0  0  0  0  0  0  0  0  0  0  0  0
    0.8433   -3.9892    0.0000 O   0  0  0  0  0  0  0  0  0  0  0  0
    3.1459   -3.9892    0.0000 N   0  0  0  0  0  0  0  0  0  0  0  0
    3.1459   -5.3170    0.0000 C   0  0  0  0  0  0  0  0  0  0  0  0
    4.2943   -5.9809    0.0000 O   0  0  0  0  0  0  0  0  0  0  0  0
    1.9916   -5.9809    0.0000 N   0  0  0  0  0  0  0  0  0  0  0  0
    0.6639   -1.9916    0.0000 C   0  0  0  0  0  0  0  0  0  0  0  0
    0.0000   -3.1459    0.0000 C   0  0  0  0  0  0  0  0  0  0  0  0
    1.9916   -0.6639    0.0000 C   0  0  0  0  0  0  0  0  0  0  0  0
    3.1459    0.0000    0.0000 C   0  0  0  0  0  0  0  0  0  0  0  0
  1  2  1  0  0  0  0
  2  3  1  0  0  0  0
  2  9  1  0  0  0  0
  2 11  1  0  0  0  0
  3  4  2  0  0  0  0
  3  5  1  0  0  0  0
  5  6  1  0  0  0  0
  6  7  2  0  0  0  0
  6  8  1  0  0  0  0
  9 10  1  0  0  0  0
 11 12  1  0  0  0  0
M  END
>  <DSSTox_RID>
20252

>  <DSSTox_CID>
252

>  <DSSTox_Generic_SID>
20252

>  <DSSTox_FileID>
258_CPDBAS_v5d

>  <STRUCTURE_Formula>
C7H13BrN2O2

>  <STRUCTURE_MolecularWeight>
237.0943

>  <STRUCTURE_ChemicalType>
defined organic

>  <STRUCTURE_TestedForm_DefinedOrganic>
parent

>  <STRUCTURE_Shown>
tested chemical

>  <TestSubstance_ChemicalName>
Carbromal

>  <TestSubstance_CASRN>
77-65-6

>  <TestSubstance_Description>
single chemical compound

>  <STRUCTURE_ChemicalName_IUPAC>
N-(aminocarbonyl)-2-bromo-2-ethylbutanamide

>  <STRUCTURE_SMILES>
BrC(C(=O)NC(=O)N)(CC)CC

>  <STRUCTURE_Parent_SMILES>
BrC(C(=O)NC(=O)N)(CC)CC

>  <STRUCTURE_InChI>
InChI=1/C7H13BrN2O2/c1-3-7(8,4-2)5(11)10-6(9)12/h3-4H2,1-2H3,(H3,9,10,11,12)/f/h10H,9H2

>  <STRUCTURE_InChIKey>
OPNPQXLQERQBBV-ACESRIFFCR

>  <StudyType>
Carcinogenicity

>  <Endpoint>
TD50; Tumor Target Sites

>  <Species>
rat; mouse

>  <ActivityOutcome_CPDBAS_Mutagenicity>
inactive

>  <ActivityScore_CPDBAS_Rat>
0

>  <TD50_Rat_Note>
no positive results

>  <TargetSites_Rat_Male>
no positive results

>  <TargetSites_Rat_Female>
no positive results

>  <ActivityOutcome_CPDBAS_Rat>
inactive

>  <ActivityScore_CPDBAS_Mouse>
0

>  <TD50_Mouse_Note>
no positive results

>  <TargetSites_Mouse_Male>
no positive results

>  <TargetSites_Mouse_Female>
no positive results

>  <ActivityOutcome_CPDBAS_Mouse>
inactive

>  <ActivityOutcome_CPDBAS_SingleCellCall>
inactive

>  <ActivityOutcome_CPDBAS_MultiCellCall>
inactive

>  <ActivityOutcome_CPDBAS_MultiCellCall_Details>
multisex inactive; multispecies inactive

>  <NTP_TechnicalReport>
TR 173

>  <ChemicalPage_URL>
http://potency.berkeley.edu/chempages/CARBROMAL.html

$$$$



 40 41  0  0  0  0  0  0  0  0999 V2000
    2.2980   -2.9847    0.0000 C   0  0  0  0  0  0  0  0  0  0  0  0
   24.0890   -2.3772    0.0000 C   0  0  0  0  0  0  0  0  0  0  0  0
   22.9532   -2.9847    0.0000 C   0  0  0  0  0  0  0  0  0  0  0  0
    3.4337   -2.3772    0.0000 C   0  0  0  0  0  0  0  0  0  0  0  0
    1.1622   -2.3772    0.0000 C   0  0  0  0  0  0  0  0  0  0  0  0
   25.2776   -2.9847    0.0000 C   0  0  0  0  0  0  0  0  0  0  0  0
    2.2980   -4.3318    0.0000 C   0  0  0  0  0  0  0  0  0  0  0  0
   24.0890   -0.9773    0.0000 C   0  0  0  0  0  0  0  0  0  0  0  0
   21.7910   -2.3772    0.0000 C   0  0  0  0  0  0  0  0  0  0  0  0
    4.5695   -2.9847    0.0000 C   0  0  0  0  0  0  0  0  0  0  0  0
    8.0297   -2.3772    0.0000 C   0  0  0  0  0  0  0  0  0  0  0  0
   18.3308   -2.9847    0.0000 C   0  0  0  0  0  0  0  0  0  0  0  0
    5.7053   -2.3772    0.0000 C   0  0  0  0  0  0  0  0  0  0  0  0
   20.6552   -2.9847    0.0000 C   0  0  0  0  0  0  0  0  0  0  0  0
   10.3012   -2.3772    0.0000 C   0  0  0  0  0  0  0  0  0  0  0  0
   16.0329   -2.9847    0.0000 C   0  0  0  0  0  0  0  0  0  0  0  0
    6.8939   -2.9847    0.0000 C   0  0  0  0  0  0  0  0  0  0  0  0
   19.4930   -2.3772    0.0000 C   0  0  0  0  0  0  0  0  0  0  0  0
    9.1918   -2.9847    0.0000 C   0  0  0  0  0  0  0  0  0  0  0  0
   17.1687   -2.3772    0.0000 C   0  0  0  0  0  0  0  0  0  0  0  0
   11.4370   -2.9847    0.0000 C   0  0  0  0  0  0  0  0  0  0  0  0
   14.8707   -2.3772    0.0000 C   0  0  0  0  0  0  0  0  0  0  0  0
   13.7085   -2.9847    0.0000 C   0  0  0  0  0  0  0  0  0  0  0  0
   12.5992   -2.3772    0.0000 C   0  0  0  0  0  0  0  0  0  0  0  0
    0.0000   -2.9847    0.0000 C   0  0  0  0  0  0  0  0  0  0  0  0
   26.4133   -2.3772    0.0000 C   0  0  0  0  0  0  0  0  0  0  0  0
    1.1622   -4.9657    0.0000 C   0  0  0  0  0  0  0  0  0  0  0  0
   25.2776   -0.3170    0.0000 C   0  0  0  0  0  0  0  0  0  0  0  0
    1.1622   -0.8716    0.0000 C   0  0  0  0  0  0  0  0  0  0  0  0
   25.2776   -4.3318    0.0000 C   0  0  0  0  0  0  0  0  0  0  0  0
    2.9055   -5.5732    0.0000 C   0  0  0  0  0  0  0  0  0  0  0  0
   22.8475   -0.9773    0.0000 C   0  0  0  0  0  0  0  0  0  0  0  0
   23.1909    0.0000    0.0000 C   0  0  0  0  0  0  0  0  0  0  0  0
    3.7243   -4.3318    0.0000 C   0  0  0  0  0  0  0  0  0  0  0  0
   26.4133   -0.9773    0.0000 C   0  0  0  0  0  0  0  0  0  0  0  0
    0.0000   -4.3318    0.0000 C   0  0  0  0  0  0  0  0  0  0  0  0
   20.6552   -4.3318    0.0000 C   0  0  0  0  0  0  0  0  0  0  0  0
    5.7053   -0.8716    0.0000 C   0  0  0  0  0  0  0  0  0  0  0  0
   16.0329   -4.3318    0.0000 C   0  0  0  0  0  0  0  0  0  0  0  0
   10.3012   -0.9509    0.0000 C   0  0  0  0  0  0  0  0  0  0  0  0
  1  4  1  0  0  0  0
  1  5  2  0  0  0  0
  1  7  1  0  0  0  0
  2  3  1  0  0  0  0
  2  6  2  0  0  0  0
  2  8  1  0  0  0  0
  3  9  2  0  0  0  0
  4 10  2  0  0  0  0
  5 25  1  0  0  0  0
  5 29  1  0  0  0  0
  6 26  1  0  0  0  0
  6 30  1  0  0  0  0
  7 27  1  0  0  0  0
  7 31  1  0  0  0  0
  7 34  1  0  0  0  0
  8 28  1  0  0  0  0
  8 32  1  0  0  0  0
  8 33  1  0  0  0  0
  9 14  1  0  0  0  0
 10 13  1  0  0  0  0
 11 17  1  0  0  0  0
 11 19  2  0  0  0  0
 12 20  2  0  0  0  0
 12 18  1  0  0  0  0
 13 17  2  0  0  0  0
 13 38  1  0  0  0  0
 14 18  2  0  0  0  0
 14 37  1  0  0  0  0
 15 19  1  0  0  0  0
 15 21  2  0  0  0  0
 15 40  1  0  0  0  0
 16 22  2  0  0  0  0
 16 20  1  0  0  0  0
 16 39  1  0  0  0  0
 21 24  1  0  0  0  0
 22 23  1  0  0  0  0
 23 24  2  0  0  0  0
 25 36  1  0  0  0  0
 26 35  1  0  0  0  0
 27 36  1  0  0  0  0
 28 35  1  0  0  0  0
M  END
>  <DSSTox_RID>
20253

>  <DSSTox_CID>
253

>  <DSSTox_Generic_SID>
20253

>  <DSSTox_FileID>
259_CPDBAS_v5d

>  <STRUCTURE_Formula>
C40H56

>  <STRUCTURE_MolecularWeight>
536.8726

>  <STRUCTURE_ChemicalType>
defined organic

>  <STRUCTURE_TestedForm_DefinedOrganic>
parent

>  <STRUCTURE_Shown>
tested chemical

>  <TestSubstance_ChemicalName>
beta-Carotene

>  <TestSubstance_CASRN>
7235-40-7

>  <TestSubstance_Description>
single chemical compound

>  <ChemicalNote>
stereochem, C.I. 75130

>  <STRUCTURE_ChemicalName_IUPAC>
beta,beta-carotene

>  <STRUCTURE_SMILES>
CC2(C)CCCC(\C)=C2\C=C\C(\C)=C\C=C\C(\C)=C\C=C\C=C(/C)\C=C\C=C(/C)\C=C\C1=C(/C)CCCC1(C)C

>  <STRUCTURE_Parent_SMILES>
CC2(C)CCCC(\C)=C2\C=C\C(\C)=C\C=C\C(\C)=C\C=C\C=C(/C)\C=C\C=C(/C)\C=C\C1=C(/C)CCCC1(C)C

>  <STRUCTURE_InChI>
InChI=1/C40H56/c1-31(19-13-21-33(3)25-27-37-35(5)23-15-29-39(37,7)8)17-11-12-18-32(2)20-14-22-34(4)26-28-38-36(6)24-16-30-40(38,9)10/h11-14,17-22,25-28H,15-16,23-24,29-30H2,1-10H3/b12-11+,19-13+,20-14+,27-25+,28-26+,31-17+,32-18+,33-21+,34-22+

>  <STRUCTURE_InChIKey>
OENHQHLEOONYIE-JLTXGRSLBT

>  <StudyType>
Carcinogenicity

>  <Endpoint>
TD50; Tumor Target Sites

>  <Species>
rat; mouse

>  <ActivityOutcome_CPDBAS_Mutagenicity>
active

>  <ActivityScore_CPDBAS_Rat>
0

>  <TD50_Rat_Note>
no positive results

>  <TargetSites_Rat_Male>
no positive results

>  <ActivityOutcome_CPDBAS_Rat>
inactive

>  <ActivityScore_CPDBAS_Mouse>
0

>  <TD50_Mouse_Note>
no positive results

>  <TargetSites_Mouse_Male>
no positive results

>  <TargetSites_Mouse_Female>
no positive results

>  <ActivityOutcome_CPDBAS_Mouse>
inactive

>  <ActivityOutcome_CPDBAS_SingleCellCall>
inactive

>  <ActivityOutcome_CPDBAS_MultiCellCall>
inactive

>  <ActivityOutcome_CPDBAS_MultiCellCall_Details>
multisex inactive; multispecies inactive

>  <Note_CPDBAS>
Rat added v2a; Mouse added v2a

>  <ChemicalPage_URL>
http://potency.berkeley.edu/chempages/beta-CAROTENE.html

$$$$



 11 11  0  0  1  0  0  0  0  0999 V2000
    0.0000   -5.9835    0.0000 C   0  0  0  0  0  0  0  0  0  0  0  0
    1.1488   -5.3194    0.0000 C   0  0  0  0  0  0  0  0  0  0  0  0
    2.3037   -5.9835    0.0000 C   0  0  0  0  0  0  0  0  0  0  0  0
    1.1488   -3.9910    0.0000 C   0  0  2  0  0  0  0  0  0  0  0  0
    2.3037   -3.3269    0.0000 C   0  0  0  0  0  0  0  0  0  0  0  0
    2.3037   -1.9925    0.0000 C   0  0  0  0  0  0  0  0  0  0  0  0
    3.4525   -1.3283    0.0000 O   0  0  0  0  0  0  0  0  0  0  0  0
    1.1488   -1.3283    0.0000 C   0  0  0  0  0  0  0  0  0  0  0  0
    0.0000   -1.9925    0.0000 C   0  0  0  0  0  0  0  0  0  0  0  0
    0.0000   -3.3269    0.0000 C   0  0  0  0  0  0  0  0  0  0  0  0
    1.1488    0.0000    0.0000 C   0  0  0  0  0  0  0  0  0  0  0  0
  1  2  1  0  0  0  0
  2  3  2  0  0  0  0
  4  2  1  1  0  0  0
  4  5  1  0  0  0  0
  4 10  1  0  0  0  0
  5  6  1  0  0  0  0
  6  7  2  0  0  0  0
  6  8  1  0  0  0  0
  8  9  2  0  0  0  0
  8 11  1  0  0  0  0
  9 10  1  0  0  0  0
M  END
>  <DSSTox_RID>
20256

>  <DSSTox_CID>
256

>  <DSSTox_Generic_SID>
20256

>  <DSSTox_FileID>
262_CPDBAS_v5d

>  <STRUCTURE_Formula>
C10H14O

>  <STRUCTURE_MolecularWeight>
150.2176

>  <STRUCTURE_ChemicalType>
defined organic

>  <STRUCTURE_TestedForm_DefinedOrganic>
parent

>  <STRUCTURE_Shown>
tested chemical

>  <TestSubstance_ChemicalName>
d-Carvone

>  <TestSubstance_CASRN>
2244-16-8

>  <TestSubstance_Description>
single chemical compound

>  <ChemicalNote>
stereochem

>  <STRUCTURE_ChemicalName_IUPAC>
(5S)-2-methyl-5-(1-methylethenyl)cyclohex-2-en-1-one

>  <STRUCTURE_SMILES>
O=C1C[C@H](C\C=C1\C)C(C)=C

>  <STRUCTURE_Parent_SMILES>
O=C1C[C@H](C\C=C1\C)C(C)=C

>  <STRUCTURE_InChI>
InChI=1/C10H14O/c1-7(2)9-5-4-8(3)10(11)6-9/h4,9H,1,5-6H2,2-3H3/t9-/m0/s1

>  <STRUCTURE_InChIKey>
ULDHMXUKGWMISQ-VIFPVBQEBV

>  <StudyType>
Carcinogenicity

>  <Endpoint>
TD50; Tumor Target Sites

>  <Species>
mouse

>  <ActivityOutcome_CPDBAS_Mutagenicity>
inactive

>  <ActivityScore_CPDBAS_Mouse>
0

>  <TD50_Mouse_Note>
no positive results

>  <TargetSites_Mouse_Male>
no positive results

>  <TargetSites_Mouse_Female>
no positive results

>  <ActivityOutcome_CPDBAS_Mouse>
inactive

>  <ActivityOutcome_CPDBAS_SingleCellCall>
inactive

>  <ActivityOutcome_CPDBAS_MultiCellCall>
inactive

>  <ActivityOutcome_CPDBAS_MultiCellCall_Details>
multisex inactive

>  <Note_CPDBAS>
structure corrected v5a

>  <NTP_TechnicalReport>
TR 381

>  <ChemicalPage_URL>
http://potency.berkeley.edu/chempages/D-CARVONE.html

$$$$



  8  8  0  0  0  0  0  0  0  0999 V2000
    0.0000   -2.3027    0.0000 O   0  0  0  0  0  0  0  0  0  0  0  0
    1.3289   -2.3027    0.0000 C   0  0  0  0  0  0  0  0  0  0  0  0
    1.9954   -1.1533    0.0000 C   0  0  0  0  0  0  0  0  0  0  0  0
    3.3243   -1.1533    0.0000 C   0  0  0  0  0  0  0  0  0  0  0  0
    3.9907   -2.3027    0.0000 C   0  0  0  0  0  0  0  0  0  0  0  0
    3.3243   -3.4560    0.0000 C   0  0  0  0  0  0  0  0  0  0  0  0
    1.9954   -3.4560    0.0000 C   0  0  0  0  0  0  0  0  0  0  0  0
    1.3289    0.0000    0.0000 O   0  0  0  0  0  0  0  0  0  0  0  0
  1  2  1  0  0  0  0
  2  3  2  0  0  0  0
  2  7  1  0  0  0  0
  3  4  1  0  0  0  0
  3  8  1  0  0  0  0
  4  5  2  0  0  0  0
  5  6  1  0  0  0  0
  6  7  2  0  0  0  0
M  END
>  <DSSTox_RID>
20257

>  <DSSTox_CID>
257

>  <DSSTox_Generic_SID>
20257

>  <DSSTox_FileID>
264_CPDBAS_v5d

>  <STRUCTURE_Formula>
C6H6O2

>  <STRUCTURE_MolecularWeight>
110.1106

>  <STRUCTURE_ChemicalType>
defined organic

>  <STRUCTURE_TestedForm_DefinedOrganic>
parent

>  <STRUCTURE_Shown>
tested chemical

>  <TestSubstance_ChemicalName>
Catechol

>  <TestSubstance_CASRN>
120-80-9

>  <TestSubstance_Description>
single chemical compound

>  <STRUCTURE_ChemicalName_IUPAC>
pyrocatechol

>  <STRUCTURE_SMILES>
OC1=C(C=CC=C1)O

>  <STRUCTURE_Parent_SMILES>
OC1=C(C=CC=C1)O

>  <STRUCTURE_InChI>
InChI=1/C6H6O2/c7-5-3-1-2-4-6(5)8/h1-4,7-8H

>  <STRUCTURE_InChIKey>
YCIMNLLNPGFGHC-UHFFFAOYAA

>  <StudyType>
Carcinogenicity

>  <Endpoint>
TD50; Tumor Target Sites

>  <Species>
rat; mouse

>  <ActivityOutcome_CPDBAS_Mutagenicity>
inactive

>  <TD50_Rat_mg>
71.5

>  <TD50_Rat_mmol>
0.649

>  <ActivityScore_CPDBAS_Rat>
28

>  <TD50_Rat_Note>
TD50 is harmonic mean of more than one positive test; harmonic mean of TD50 includes a value for upper 99% confidence limit from study with 100% tumor incidence but no lifetable; greater than ten-fold variation among TD50 values for positive results

>  <TargetSites_Rat_Male>
stomach

>  <TargetSites_Rat_Female>
stomach

>  <ActivityOutcome_CPDBAS_Rat>
active

>  <TD50_Mouse_mg>
244

>  <TD50_Mouse_mmol>
2.22

>  <ActivityScore_CPDBAS_Mouse>
24

>  <TD50_Mouse_Note>
TD50 is harmonic mean of more than one positive test

>  <TargetSites_Mouse_Male>
stomach

>  <TargetSites_Mouse_Female>
stomach

>  <ActivityOutcome_CPDBAS_Mouse>
active

>  <ActivityOutcome_CPDBAS_SingleCellCall>
active

>  <ActivityOutcome_CPDBAS_MultiCellCall>
active

>  <ActivityOutcome_CPDBAS_MultiCellCall_Details>
multisex active; multispecies active

>  <Note_CPDBAS>
TD50_Rat modified v5a

>  <ChemicalPage_URL>
http://potency.berkeley.edu/chempages/CATECHOL.html

$$$$



 26 28  0  0  0  0  0  0  0  0999 V2000
    6.6580   -6.0225    0.0000 C   0  0  0  0  0  0  0  0  0  0  0  0
    7.8019   -6.6874    0.0000 S   0  0  0  0  0  0  0  0  0  0  0  0
    8.9556   -7.3522    0.0000 N   0  0  0  0  0  0  0  0  0  0  0  0
    7.1371   -7.8410    0.0000 O   0  0  0  0  0  0  0  0  0  0  0  0
    8.4667   -5.5435    0.0000 O   0  0  0  0  0  0  0  0  0  0  0  0
    6.6580   -4.6929    0.0000 C   0  0  0  0  0  0  0  0  0  0  0  0
    5.5044   -4.0281    0.0000 C   0  0  0  0  0  0  0  0  0  0  0  0
    4.3507   -4.6929    0.0000 C   0  0  0  0  0  0  0  0  0  0  0  0
    3.1970   -4.0281    0.0000 N   0  0  0  0  0  0  0  0  0  0  0  0
    3.0601   -2.7082    0.0000 N   0  0  0  0  0  0  0  0  0  0  0  0
    1.7598   -2.4344    0.0000 C   0  0  0  0  0  0  0  0  0  0  0  0
    1.2123   -1.2123    0.0000 C   0  0  0  0  0  0  0  0  0  0  0  0
    0.6746    0.0000    0.0000 F   0  0  0  0  0  0  0  0  0  0  0  0
    0.0000   -1.7598    0.0000 F   0  0  0  0  0  0  0  0  0  0  0  0
    2.4344   -0.6746    0.0000 F   0  0  0  0  0  0  0  0  0  0  0  0
    1.0950   -3.5783    0.0000 C   0  0  0  0  0  0  0  0  0  0  0  0
    1.9847   -4.5756    0.0000 C   0  0  0  0  0  0  0  0  0  0  0  0
    1.7012   -5.8759    0.0000 C   0  0  0  0  0  0  0  0  0  0  0  0
    0.4400   -6.2865    0.0000 C   0  0  0  0  0  0  0  0  0  0  0  0
    0.1662   -7.5868    0.0000 C   0  0  0  0  0  0  0  0  0  0  0  0
    1.1537   -8.4765    0.0000 C   0  0  0  0  0  0  0  0  0  0  0  0
    0.8799   -9.7768    0.0000 C   0  0  0  0  0  0  0  0  0  0  0  0
    2.4149   -8.0659    0.0000 C   0  0  0  0  0  0  0  0  0  0  0  0
    2.6984   -6.7656    0.0000 C   0  0  0  0  0  0  0  0  0  0  0  0
    4.3507   -6.0225    0.0000 C   0  0  0  0  0  0  0  0  0  0  0  0
    5.5044   -6.6874    0.0000 C   0  0  0  0  0  0  0  0  0  0  0  0
  1  2  1  0  0  0  0
  1  6  2  0  0  0  0
  1 26  1  0  0  0  0
  2  3  1  0  0  0  0
  2  4  2  0  0  0  0
  2  5  2  0  0  0  0
  6  7  1  0  0  0  0
  7  8  2  0  0  0  0
  8  9  1  0  0  0  0
  8 25  1  0  0  0  0
  9 10  1  0  0  0  0
  9 17  1  0  0  0  0
 10 11  2  0  0  0  0
 11 12  1  0  0  0  0
 11 16  1  0  0  0  0
 12 13  1  0  0  0  0
 12 14  1  0  0  0  0
 12 15  1  0  0  0  0
 16 17  2  0  0  0  0
 17 18  1  0  0  0  0
 18 19  2  0  0  0  0
 18 24  1  0  0  0  0
 19 20  1  0  0  0  0
 20 21  2  0  0  0  0
 21 22  1  0  0  0  0
 21 23  1  0  0  0  0
 23 24  2  0  0  0  0
 25 26  2  0  0  0  0
M  END
>  <DSSTox_RID>
40776

>  <DSSTox_CID>
2777

>  <DSSTox_Generic_SID>
22777

>  <DSSTox_FileID>
265_CPDBAS_v5d

>  <STRUCTURE_Formula>
C17H14F3N3O2S

>  <STRUCTURE_MolecularWeight>
381.3722

>  <STRUCTURE_ChemicalType>
defined organic

>  <STRUCTURE_TestedForm_DefinedOrganic>
parent

>  <STRUCTURE_Shown>
tested chemical

>  <TestSubstance_ChemicalName>
Celecoxib

>  <TestSubstance_CASRN>
169590-42-5

>  <TestSubstance_Description>
single chemical compound

>  <STRUCTURE_ChemicalName_IUPAC>
4-[5-(4-methylphenyl)-3-(trifluoromethyl)-1H-pyrazol-1-yl]benzenesulfonamide

>  <STRUCTURE_SMILES>
C3(S(N)(=O)=O)=CC=C(N2N=C(C(F)(F)F)C=C2C1=CC=C(C)C=C1)C=C3

>  <STRUCTURE_Parent_SMILES>
C3(S(N)(=O)=O)=CC=C(N2N=C(C(F)(F)F)C=C2C1=CC=C(C)C=C1)C=C3

>  <STRUCTURE_InChI>
InChI=1/C17H14F3N3O2S/c1-11-2-4-12(5-3-11)15-10-16(17(18,19)20)22-23(15)13-6-8-14(9-7-13)26(21,24)25/h2-10H,1H3,(H2,21,24,25)/f/h21H2

>  <STRUCTURE_InChIKey>
RZEKVGVHFLEQIL-QVUQFMIFCW

>  <StudyType>
Carcinogenicity

>  <Endpoint>
TD50; Tumor Target Sites

>  <Species>
rat

>  <ActivityScore_CPDBAS_Rat>
0

>  <TD50_Rat_Note>
no positive results

>  <TargetSites_Rat_Male>
no positive results

>  <ActivityOutcome_CPDBAS_Rat>
inactive

>  <ActivityOutcome_CPDBAS_SingleCellCall>
inactive

>  <Note_CPDBAS>
Rat added v5a; chemical added v5a

>  <ChemicalPage_URL>
http://potency.berkeley.edu/chempages/CELECOXIB.html

$$$$



 27 27  0  0  0  0  0  0  0  0999 V2000
    7.3144   -2.2971    0.0000 C   0  0  0  0  0  0  0  0  0  0  0  0
    7.9794   -3.4607    0.0000 C   0  0  0  0  0  0  0  0  0  0  0  0
    7.3144   -4.6093    0.0000 C   0  0  0  0  0  0  0  0  0  0  0  0
    5.9845   -4.6093    0.0000 C   0  0  0  0  0  0  0  0  0  0  0  0
    5.3196   -3.4607    0.0000 C   0  0  0  0  0  0  0  0  0  0  0  0
    5.9845   -2.2971    0.0000 C   0  0  0  0  0  0  0  0  0  0  0  0
    3.9897   -3.4607    0.0000 N   0  0  0  0  0  0  0  0  0  0  0  0
    3.3247   -4.6093    0.0000 C   0  0  0  0  0  0  0  0  0  0  0  0
    1.9948   -4.6093    0.0000 N   0  0  0  0  0  0  0  0  0  0  0  0
    1.3299   -5.7578    0.0000 C   0  0  0  0  0  0  0  0  0  0  0  0
    0.0000   -5.7578    0.0000 C   0  0  0  0  0  0  0  0  0  0  0  0
    1.3299   -3.4607    0.0000 C   0  0  0  0  0  0  0  0  0  0  0  0
    1.9948   -2.2971    0.0000 C   0  0  0  0  0  0  0  0  0  0  0  0
    3.9897   -5.7578    0.0000 O   0  0  0  0  0  0  0  0  0  0  0  0
    9.3093   -3.4607    0.0000 O   0  0  0  0  0  0  0  0  0  0  0  0
    9.9742   -4.6093    0.0000 C   0  0  0  0  0  0  0  0  0  0  0  0
   11.3041   -4.6093    0.0000 C   0  0  3  0  0  0  0  0  0  0  0  0
   11.9690   -3.4607    0.0000 C   0  0  0  0  0  0  0  0  0  0  0  0
   13.2989   -3.4607    0.0000 N   0  0  0  0  0  0  0  0  0  0  0  0
   13.9639   -2.2971    0.0000 C   0  0  0  0  0  0  0  0  0  0  0  0
   12.8153   -1.6321    0.0000 C   0  0  0  0  0  0  0  0  0  0  0  0
   14.6288   -1.1485    0.0000 C   0  0  0  0  0  0  0  0  0  0  0  0
   15.1124   -2.9620    0.0000 C   0  0  0  0  0  0  0  0  0  0  0  0
   11.9690   -5.7578    0.0000 O   0  0  0  0  0  0  0  0  0  0  0  0
    7.9794   -1.1485    0.0000 C   0  0  0  0  0  0  0  0  0  0  0  0
    7.3144    0.0000    0.0000 C   0  0  0  0  0  0  0  0  0  0  0  0
    9.3093   -1.1485    0.0000 O   0  0  0  0  0  0  0  0  0  0  0  0
  1  2  2  0  0  0  0
  1  6  1  0  0  0  0
  1 25  1  0  0  0  0
  2  3  1  0  0  0  0
  2 15  1  0  0  0  0
  3  4  2  0  0  0  0
  4  5  1  0  0  0  0
  5  6  2  0  0  0  0
  5  7  1  0  0  0  0
  7  8  1  0  0  0  0
  8  9  1  0  0  0  0
  8 14  2  0  0  0  0
  9 10  1  0  0  0  0
  9 12  1  0  0  0  0
 10 11  1  0  0  0  0
 12 13  1  0  0  0  0
 15 16  1  0  0  0  0
 16 17  1  0  0  0  0
 17 18  1  0  0  0  0
 17 24  1  0  0  0  0
 18 19  1  0  0  0  0
 19 20  1  0  0  0  0
 20 21  1  0  0  0  0
 20 22  1  0  0  0  0
 20 23  1  0  0  0  0
 25 26  1  0  0  0  0
 25 27  2  0  0  0  0
M  END
>  <DSSTox_RID>
20259

>  <DSSTox_CID>
259

>  <DSSTox_Generic_SID>
20259

>  <DSSTox_FileID>
266_CPDBAS_v5d

>  <STRUCTURE_Formula>
C20H33N3O4

>  <STRUCTURE_MolecularWeight>
379.4984

>  <STRUCTURE_ChemicalType>
defined organic

>  <STRUCTURE_TestedForm_DefinedOrganic>
parent

>  <STRUCTURE_Shown>
tested chemical

>  <TestSubstance_ChemicalName>
Celiprolol

>  <TestSubstance_CASRN>
56980-93-9

>  <TestSubstance_Description>
single chemical compound

>  <STRUCTURE_ChemicalName_IUPAC>
3-[3-acetyl-4-({3-[(1,1-dimethylethyl)amino]-2-hydroxypropyl}oxy)phenyl]-1,1-diethylurea

>  <STRUCTURE_SMILES>
C1(=C(C=CC(=C1)NC(N(CC)CC)=O)OCC(CNC(C)(C)C)O)C(C)=O

>  <STRUCTURE_Parent_SMILES>
C1(=C(C=CC(=C1)NC(N(CC)CC)=O)OCC(CNC(C)(C)C)O)C(C)=O

>  <STRUCTURE_InChI>
InChI=1/C20H33N3O4/c1-7-23(8-2)19(26)22-15-9-10-18(17(11-15)14(3)24)27-13-16(25)12-21-20(4,5)6/h9-11,16,21,25H,7-8,12-13H2,1-6H3,(H,22,26)/f/h22H

>  <STRUCTURE_InChIKey>
JOATXPAWOHTVSZ-QWOVJGMICP

>  <StudyType>
Carcinogenicity

>  <Endpoint>
TD50; Tumor Target Sites

>  <Species>
rat; mouse

>  <ActivityScore_CPDBAS_Rat>
0

>  <TD50_Rat_Note>
no positive results

>  <TargetSites_Rat_Male>
no positive results

>  <TargetSites_Rat_Female>
no positive results

>  <ActivityOutcome_CPDBAS_Rat>
inactive

>  <ActivityScore_CPDBAS_Mouse>
0

>  <TD50_Mouse_Note>
no positive results

>  <TargetSites_Mouse_Male>
no positive results

>  <TargetSites_Mouse_Female>
no positive results

>  <ActivityOutcome_CPDBAS_Mouse>
inactive

>  <ActivityOutcome_CPDBAS_SingleCellCall>
inactive

>  <ActivityOutcome_CPDBAS_MultiCellCall>
inactive

>  <ActivityOutcome_CPDBAS_MultiCellCall_Details>
multisex inactive; multispecies inactive

>  <Note_CPDBAS>
Rat added v3a

>  <ChemicalPage_URL>
http://potency.berkeley.edu/chempages/CELIPROLOL.html

$$$$



 32 35  0  0  1  0  0  0  0  0999 V2000
    6.9657   -3.7936    0.0000 C   0  0  1  0  0  0  0  0  0  0  0  0
    3.4828   -5.7616    0.0000 C   0  0  2  0  0  0  0  0  0  0  0  0
    6.9657   -5.0883    0.0000 C   0  0  2  0  0  0  0  0  0  0  0  0
    4.6611   -5.0883    0.0000 C   0  0  2  0  0  0  0  0  0  0  0  0
    5.8004   -5.7616    0.0000 C   0  0  1  0  0  0  0  0  0  0  0  0
    3.4828   -7.1211    0.0000 C   0  0  2  0  0  0  0  0  0  0  0  0
    5.8004   -7.1211    0.0000 C   0  0  1  0  0  0  0  0  0  0  0  0
    8.2345   -3.3404    0.0000 C   0  0  2  0  0  0  0  0  0  0  0  0
    5.8004   -3.1203    0.0000 C   0  0  0  0  0  0  0  0  0  0  0  0
    4.6611   -7.7814    0.0000 C   0  0  0  0  0  0  0  0  0  0  0  0
    4.6611   -3.7936    0.0000 C   0  0  0  0  0  0  0  0  0  0  0  0
    8.2345   -5.5026    0.0000 C   0  0  0  0  0  0  0  0  0  0  0  0
    2.3564   -5.0883    0.0000 C   0  0  0  0  0  0  0  0  0  0  0  0
    9.0243   -4.4668    0.0000 C   0  0  0  0  0  0  0  0  0  0  0  0
   11.7303   -1.3077    0.0000 C   0  0  0  0  0  0  0  0  0  0  0  0
    2.3564   -7.7814    0.0000 C   0  0  0  0  0  0  0  0  0  0  0  0
   12.9474   -1.8256    0.0000 O   0  0  0  0  0  0  0  0  0  0  0  0
    8.2345   -2.0327    0.0000 C   0  0  1  0  0  0  0  0  0  0  0  0
    9.3739   -1.3206    0.0000 C   0  0  0  0  0  0  0  0  0  0  0  0
    6.7715   -7.8332    0.0000 O   0  0  0  0  0  0  0  0  0  0  0  0
   10.5392   -1.9809    0.0000 C   0  0  0  0  0  0  0  0  0  0  0  0
    6.9657   -2.4471    0.0000 C   0  0  0  0  0  0  0  0  0  0  0  0
    1.1912   -5.7616    0.0000 C   0  0  0  0  0  0  0  0  0  0  0  0
    1.1912   -7.1211    0.0000 C   0  0  1  0  0  0  0  0  0  0  0  0
    3.4828   -4.4668    0.0000 C   0  0  0  0  0  0  0  0  0  0  0  0
   11.7303    0.0000    0.0000 O   0  0  0  0  0  0  0  0  0  0  0  0
    0.0000   -7.7943    0.0000 O   0  0  0  0  0  0  0  0  0  0  0  0
    7.0563   -1.3854    0.0000 C   0  0  0  0  0  0  0  0  0  0  0  0
    3.4828   -8.4546    0.0000 H   0  0  0  0  0  0  0  0  0  0  0  0
    5.8004   -4.4280    0.0000 H   0  0  0  0  0  0  0  0  0  0  0  0
    6.9657   -6.4089    0.0000 H   0  0  0  0  0  0  0  0  0  0  0  0
    4.6611   -6.4089    0.0000 H   0  0  0  0  0  0  0  0  0  0  0  0
  1  3  1  0  0  0  0
  1  8  1  0  0  0  0
  1  9  1  0  0  0  0
  1 22  1  1  0  0  0
  2  4  1  0  0  0  0
  2  6  1  0  0  0  0
  2 13  1  0  0  0  0
  2 25  1  1  0  0  0
  3  5  1  0  0  0  0
  3 12  1  0  0  0  0
  3 31  1  6  0  0  0
  4 11  1  0  0  0  0
  4  5  1  0  0  0  0
  4 32  1  6  0  0  0
  5  7  1  0  0  0  0
  5 30  1  1  0  0  0
  6 16  1  0  0  0  0
  6 29  1  1  0  0  0
  6 10  1  0  0  0  0
  7 10  1  0  0  0  0
  7 20  1  6  0  0  0
  8 14  1  0  0  0  0
  8 18  1  1  0  0  0
  9 11  1  0  0  0  0
 12 14  1  0  0  0  0
 13 23  1  0  0  0  0
 15 21  1  0  0  0  0
 15 17  2  0  0  0  0
 15 26  1  0  0  0  0
 16 24  1  0  0  0  0
 18 19  1  0  0  0  0
 18 28  1  6  0  0  0
 19 21  1  0  0  0  0
 23 24  1  0  0  0  0
 24 27  1  6  0  0  0
M  END
>  <DSSTox_RID>
20260

>  <DSSTox_CID>
260

>  <DSSTox_Generic_SID>
20260

>  <DSSTox_FileID>
268_CPDBAS_v5d

>  <STRUCTURE_Formula>
C24H40O4

>  <STRUCTURE_MolecularWeight>
392.5776

>  <STRUCTURE_ChemicalType>
defined organic

>  <STRUCTURE_TestedForm_DefinedOrganic>
parent

>  <STRUCTURE_Shown>
tested chemical

>  <TestSubstance_ChemicalName>
Chenodeoxycholic acid

>  <TestSubstance_CASRN>
474-25-9

>  <TestSubstance_Description>
single chemical compound

>  <ChemicalNote>
stereochem

>  <STRUCTURE_ChemicalName_IUPAC>
(3alpha,5beta,7alpha,8xi)-3,7-dihydroxycholan-24-oic acid

>  <STRUCTURE_SMILES>
OC(=O)CC[C@@H](C)[C@H]4CC[C@@H]3[C@]4(C)CC[C@H]2[C@H]3[C@H](O)C[C@@H]1C[C@H](O)CC[C@@]12C

>  <STRUCTURE_Parent_SMILES>
OC(=O)CC[C@@H](C)[C@H]4CC[C@@H]3[C@]4(C)CC[C@H]2[C@H]3[C@H](O)C[C@@H]1C[C@H](O)CC[C@@]12C

>  <STRUCTURE_InChI>
InChI=1/C24H40O4/c1-14(4-7-21(27)28)17-5-6-18-22-19(9-11-24(17,18)3)23(2)10-8-16(25)12-15(23)13-20(22)26/h14-20,22,25-26H,4-13H2,1-3H3,(H,27,28)/t14-,15+,16-,17-,18+,19+,20-,22+,23+,24-/m1/s1/f/h27H

>  <STRUCTURE_InChIKey>
RUDATBOHQWOJDD-ONAQWCKTDY

>  <StudyType>
Carcinogenicity

>  <Endpoint>
TD50; Tumor Target Sites

>  <Species>
mouse

>  <ActivityScore_CPDBAS_Mouse>
0

>  <TargetSites_Mouse_BothSexes>
no positive results

>  <ActivityOutcome_CPDBAS_Mouse>
inactive

>  <ActivityOutcome_CPDBAS_SingleCellCall>
inactive

>  <ChemicalPage_URL>
http://potency.berkeley.edu/chempages/CHENODEOXYCHOLIC%20ACID.html

$$$$



  7  6  0  0  0  0  0  0  0  0999 V2000
    2.6608   -1.9956    0.0000 Cl  0  0  0  0  0  0  0  0  0  0  0  0
    1.3304   -1.9956    0.0000 C   0  0  0  0  0  0  0  0  0  0  0  0
    1.3304   -0.6652    0.0000 C   0  0  0  0  0  0  0  0  0  0  0  0
    0.1796    0.0000    0.0000 O   0  0  0  0  0  0  0  0  0  0  0  0
    2.4812    0.0000    0.0000 O   0  0  0  0  0  0  0  0  0  0  0  0
    1.3304   -3.3260    0.0000 Cl  0  0  0  0  0  0  0  0  0  0  0  0
    0.0000   -1.9956    0.0000 Cl  0  0  0  0  0  0  0  0  0  0  0  0
  1  2  1  0  0  0  0
  2  3  1  0  0  0  0
  2  6  1  0  0  0  0
  2  7  1  0  0  0  0
  3  4  1  0  0  0  0
  3  5  1  0  0  0  0
M  END
>  <DSSTox_RID>
20261

>  <DSSTox_CID>
261

>  <DSSTox_Generic_SID>
20261

>  <DSSTox_FileID>
269_CPDBAS_v5d

>  <STRUCTURE_Formula>
C2H3Cl3O2

>  <STRUCTURE_MolecularWeight>
165.403

>  <STRUCTURE_ChemicalType>
defined organic

>  <STRUCTURE_TestedForm_DefinedOrganic>
parent

>  <STRUCTURE_Shown>
tested chemical

>  <TestSubstance_ChemicalName>
Chloral hydrate

>  <TestSubstance_CASRN>
302-17-0

>  <TestSubstance_Description>
single chemical compound

>  <STRUCTURE_ChemicalName_IUPAC>
2,2,2-trichloroethane-1,1-diol

>  <STRUCTURE_SMILES>
ClC(C(O)O)(Cl)Cl

>  <STRUCTURE_Parent_SMILES>
ClC(C(O)O)(Cl)Cl

>  <STRUCTURE_InChI>
InChI=1/C2H3Cl3O2/c3-2(4,5)1(6)7/h1,6-7H

>  <STRUCTURE_InChIKey>
RNFNDJAIBTYOQL-UHFFFAOYAY

>  <StudyType>
Carcinogenicity

>  <Endpoint>
TD50; Tumor Target Sites

>  <Species>
rat; mouse

>  <ActivityOutcome_CPDBAS_Mutagenicity>
active

>  <ActivityScore_CPDBAS_Rat>
0

>  <TD50_Rat_Note>
no positive results

>  <TargetSites_Rat_Male>
no positive results

>  <ActivityOutcome_CPDBAS_Rat>
inactive

>  <TD50_Mouse_mg>
99.9

>  <TD50_Mouse_mmol>
0.604

>  <ActivityScore_CPDBAS_Mouse>
31

>  <TD50_Mouse_Note>
TD50 is harmonic mean of more than one positive test

>  <TargetSites_Mouse_Male>
liver

>  <TargetSites_Mouse_Female>
no positive results

>  <ActivityOutcome_CPDBAS_Mouse>
active

>  <ActivityOutcome_CPDBAS_SingleCellCall>
active

>  <Note_CPDBAS>
TD50_Mouse modified v5a; TargetSites_Mouse_Female modified v5a

>  <ChemicalPage_URL>
http://potency.berkeley.edu/chempages/CHLORAL%20HYDRATE.html

$$$$



 12 12  0  0  0  0  0  0  0  0999 V2000
    2.6580   -4.6084    0.0000 Cl  0  0  0  0  0  0  0  0  0  0  0  0
    1.9970   -3.4586    0.0000 C   0  0  0  0  0  0  0  0  0  0  0  0
    0.6657   -3.4586    0.0000 C   0  0  0  0  0  0  0  0  0  0  0  0
    0.0000   -2.3042    0.0000 C   0  0  0  0  0  0  0  0  0  0  0  0
    0.6657   -1.1544    0.0000 C   0  0  0  0  0  0  0  0  0  0  0  0
    1.9970   -1.1544    0.0000 C   0  0  0  0  0  0  0  0  0  0  0  0
    2.6580   -2.3042    0.0000 C   0  0  0  0  0  0  0  0  0  0  0  0
    3.9893   -2.3042    0.0000 C   0  0  0  0  0  0  0  0  0  0  0  0
    4.6549   -1.1544    0.0000 O   0  0  0  0  0  0  0  0  0  0  0  0
    4.6549   -3.4586    0.0000 O   0  0  0  0  0  0  0  0  0  0  0  0
    0.0000    0.0000    0.0000 Cl  0  0  0  0  0  0  0  0  0  0  0  0
    0.0000   -4.6084    0.0000 N   0  0  0  0  0  0  0  0  0  0  0  0
  1  2  1  0  0  0  0
  2  3  2  0  0  0  0
  2  7  1  0  0  0  0
  3  4  1  0  0  0  0
  3 12  1  0  0  0  0
  4  5  2  0  0  0  0
  5  6  1  0  0  0  0
  5 11  1  0  0  0  0
  6  7  2  0  0  0  0
  7  8  1  0  0  0  0
  8  9  2  0  0  0  0
  8 10  1  0  0  0  0
M  END
>  <DSSTox_RID>
20262

>  <DSSTox_CID>
262

>  <DSSTox_Generic_SID>
20262

>  <DSSTox_FileID>
270_CPDBAS_v5d

>  <STRUCTURE_Formula>
C7H5Cl2NO2

>  <STRUCTURE_MolecularWeight>
206.0261

>  <STRUCTURE_ChemicalType>
defined organic

>  <STRUCTURE_TestedForm_DefinedOrganic>
parent

>  <STRUCTURE_Shown>
tested chemical

>  <TestSubstance_ChemicalName>
Chloramben

>  <TestSubstance_CASRN>
133-90-4

>  <TestSubstance_Description>
single chemical compound

>  <STRUCTURE_ChemicalName_IUPAC>
3-amino-2,5-dichlorobenzoic acid

>  <STRUCTURE_SMILES>
ClC1=C(C=C(C=C1C(=O)O)Cl)N

>  <STRUCTURE_Parent_SMILES>
ClC1=C(C=C(C=C1C(=O)O)Cl)N

>  <STRUCTURE_InChI>
InChI=1/C7H5Cl2NO2/c8-3-1-4(7(11)12)6(9)5(10)2-3/h1-2H,10H2,(H,11,12)/f/h11H

>  <STRUCTURE_InChIKey>
HSSBORCLYSCBJR-WXRBYKJCCE

>  <StudyType>
Carcinogenicity

>  <Endpoint>
TD50; Tumor Target Sites

>  <Species>
rat; mouse

>  <ActivityOutcome_CPDBAS_Mutagenicity>
active

>  <ActivityScore_CPDBAS_Rat>
0

>  <TD50_Rat_Note>
no positive results

>  <TargetSites_Rat_Male>
no positive results

>  <TargetSites_Rat_Female>
no positive results

>  <ActivityOutcome_CPDBAS_Rat>
inactive

>  <TD50_Mouse_mg>
5230

>  <TD50_Mouse_mmol>
25.4

>  <ActivityScore_CPDBAS_Mouse>
12

>  <TargetSites_Mouse_Male>
no positive results

>  <TargetSites_Mouse_Female>
liver

>  <ActivityOutcome_CPDBAS_Mouse>
active

>  <ActivityOutcome_CPDBAS_SingleCellCall>
active

>  <NTP_TechnicalReport>
TR 25

>  <ChemicalPage_URL>
http://potency.berkeley.edu/chempages/CHLORAMBEN.html

$$$$



 19 19  0  0  0  0  0  0  0  0999 V2000
    9.9785   -2.3050    0.0000 Cl  0  0  0  0  0  0  0  0  0  0  0  0
    9.3099   -3.4526    0.0000 C   0  0  0  0  0  0  0  0  0  0  0  0
    7.9828   -3.4526    0.0000 C   0  0  0  0  0  0  0  0  0  0  0  0
    7.3142   -4.6101    0.0000 N   0  0  0  0  0  0  0  0  0  0  0  0
    5.9871   -4.6101    0.0000 C   0  0  0  0  0  0  0  0  0  0  0  0
    5.3185   -5.7576    0.0000 C   0  0  0  0  0  0  0  0  0  0  0  0
    3.9914   -5.7576    0.0000 C   0  0  0  0  0  0  0  0  0  0  0  0
    3.3228   -4.6101    0.0000 C   0  0  0  0  0  0  0  0  0  0  0  0
    3.9914   -3.4526    0.0000 C   0  0  0  0  0  0  0  0  0  0  0  0
    5.3185   -3.4526    0.0000 C   0  0  0  0  0  0  0  0  0  0  0  0
    1.9957   -4.6101    0.0000 C   0  0  0  0  0  0  0  0  0  0  0  0
    1.3271   -3.4526    0.0000 C   0  0  0  0  0  0  0  0  0  0  0  0
    1.9957   -2.3050    0.0000 C   0  0  0  0  0  0  0  0  0  0  0  0
    1.3271   -1.1475    0.0000 C   0  0  0  0  0  0  0  0  0  0  0  0
    0.0000   -1.1475    0.0000 O   0  0  0  0  0  0  0  0  0  0  0  0
    1.9957    0.0000    0.0000 O   0  0  0  0  0  0  0  0  0  0  0  0
    7.9828   -5.7576    0.0000 C   0  0  0  0  0  0  0  0  0  0  0  0
    9.3099   -5.7576    0.0000 C   0  0  0  0  0  0  0  0  0  0  0  0
    9.9785   -4.6101    0.0000 Cl  0  0  0  0  0  0  0  0  0  0  0  0
  1  2  1  0  0  0  0
  2  3  1  0  0  0  0
  3  4  1  0  0  0  0
  4  5  1  0  0  0  0
  4 17  1  0  0  0  0
  5  6  2  0  0  0  0
  5 10  1  0  0  0  0
  6  7  1  0  0  0  0
  7  8  2  0  0  0  0
  8  9  1  0  0  0  0
  8 11  1  0  0  0  0
  9 10  2  0  0  0  0
 11 12  1  0  0  0  0
 12 13  1  0  0  0  0
 13 14  1  0  0  0  0
 14 15  2  0  0  0  0
 14 16  1  0  0  0  0
 17 18  1  0  0  0  0
 18 19  1  0  0  0  0
M  END
>  <DSSTox_RID>
20263

>  <DSSTox_CID>
263

>  <DSSTox_Generic_SID>
20263

>  <DSSTox_FileID>
271_CPDBAS_v5d

>  <STRUCTURE_Formula>
C14H19Cl2NO2

>  <STRUCTURE_MolecularWeight>
304.2122

>  <STRUCTURE_ChemicalType>
defined organic

>  <STRUCTURE_TestedForm_DefinedOrganic>
parent

>  <STRUCTURE_Shown>
tested chemical

>  <TestSubstance_ChemicalName>
Chlorambucil

>  <TestSubstance_CASRN>
305-03-3

>  <TestSubstance_Description>
single chemical compound

>  <STRUCTURE_ChemicalName_IUPAC>
4-{4-[bis(2-chloroethyl)amino]phenyl}butanoic acid

>  <STRUCTURE_SMILES>
ClCCN(C1=CC=C(C=C1)CCCC(=O)O)CCCl

>  <STRUCTURE_Parent_SMILES>
ClCCN(C1=CC=C(C=C1)CCCC(=O)O)CCCl

>  <STRUCTURE_InChI>
InChI=1/C14H19Cl2NO2/c15-8-10-17(11-9-16)13-6-4-12(5-7-13)2-1-3-14(18)19/h4-7H,1-3,8-11H2,(H,18,19)/f/h18H

>  <STRUCTURE_InChIKey>
JCKYGMPEJWAADB-GPQMBLKYCN

>  <StudyType>
Carcinogenicity

>  <Endpoint>
TD50; Tumor Target Sites

>  <Species>
rat; mouse

>  <ActivityOutcome_CPDBAS_Mutagenicity>
active

>  <TD50_Rat_mg>
0.896

>  <TD50_Rat_mmol>
0.00295

>  <ActivityScore_CPDBAS_Rat>
52

>  <TD50_Rat_Note>
TD50 is harmonic mean of more than one positive test

>  <TargetSites_Rat_Male>
hematopoietic system

>  <TargetSites_Rat_Female>
ear Zymbals gland; mammary gland; nervous system

>  <ActivityOutcome_CPDBAS_Rat>
active

>  <TD50_Mouse_mg>
0.133

>  <TD50_Mouse_mmol>
0.000437

>  <ActivityScore_CPDBAS_Mouse>
66

>  <TD50_Mouse_Note>
positive test results only by intraperitoneal or intravenous injection; TD50 is harmonic mean of more than one positive test

>  <TargetSites_Mouse_Male>
hematopoietic system; lung

>  <TargetSites_Mouse_Female>
lung

>  <ActivityOutcome_CPDBAS_Mouse>
active

>  <ActivityOutcome_CPDBAS_SingleCellCall>
active

>  <ActivityOutcome_CPDBAS_MultiCellCall>
active

>  <ActivityOutcome_CPDBAS_MultiCellCall_Details>
multisite active; multisex active; multispecies active

>  <ChemicalPage_URL>
http://potency.berkeley.edu/chempages/CHLORAMBUCIL.html

$$$$



 20 20  0  0  1  0  0  0  0  0999 V2000
    3.4557    0.0000    0.0000 O   0  0  0  0  0  0  0  0  0  0  0  0
    3.4557   -1.3362    0.0000 C   0  0  1  0  0  0  0  0  0  0  0  0
    2.3038   -1.9997    0.0000 C   0  0  1  0  0  0  0  0  0  0  0  0
    1.1519   -1.3362    0.0000 C   0  0  0  0  0  0  0  0  0  0  0  0
    0.0000   -1.9997    0.0000 O   0  0  0  0  0  0  0  0  0  0  0  0
    2.3038   -3.3267    0.0000 N   0  0  0  0  0  0  0  0  0  0  0  0
    1.1519   -3.9902    0.0000 C   0  0  0  0  0  0  0  0  0  0  0  0
    0.0000   -3.3267    0.0000 O   0  0  0  0  0  0  0  0  0  0  0  0
    1.1519   -5.3264    0.0000 C   0  0  0  0  0  0  0  0  0  0  0  0
    0.0000   -5.9899    0.0000 Cl  0  0  0  0  0  0  0  0  0  0  0  0
    2.3038   -5.9899    0.0000 Cl  0  0  0  0  0  0  0  0  0  0  0  0
    4.6076   -1.9997    0.0000 C   0  0  0  0  0  0  0  0  0  0  0  0
    5.7595   -1.3362    0.0000 C   0  0  0  0  0  0  0  0  0  0  0  0
    6.9114   -1.9997    0.0000 C   0  0  0  0  0  0  0  0  0  0  0  0
    6.9114   -3.3267    0.0000 C   0  0  0  0  0  0  0  0  0  0  0  0
    5.7595   -3.9902    0.0000 C   0  0  0  0  0  0  0  0  0  0  0  0
    4.6076   -3.3267    0.0000 C   0  0  0  0  0  0  0  0  0  0  0  0
    8.0633   -3.9902    0.0000 N   0  3  0  0  0  0  0  0  0  0  0  0
    9.2152   -3.3267    0.0000 O   0  5  0  0  0  0  0  0  0  0  0  0
    8.0633   -5.3264    0.0000 O   0  0  0  0  0  0  0  0  0  0  0  0
  2  1  1  6  0  0  0
  2  3  1  0  0  0  0
  2 12  1  0  0  0  0
  3  4  1  0  0  0  0
  3  6  1  6  0  0  0
  4  5  1  0  0  0  0
  6  7  1  0  0  0  0
  7  8  2  0  0  0  0
  7  9  1  0  0  0  0
  9 10  1  0  0  0  0
  9 11  1  0  0  0  0
 12 13  2  0  0  0  0
 12 17  1  0  0  0  0
 13 14  1  0  0  0  0
 14 15  2  0  0  0  0
 15 16  1  0  0  0  0
 15 18  1  0  0  0  0
 16 17  2  0  0  0  0
 18 19  1  0  0  0  0
 18 20  2  0  0  0  0
M  END
>  <DSSTox_RID>
20265

>  <DSSTox_CID>
265

>  <DSSTox_Generic_SID>
20265

>  <DSSTox_FileID>
273_CPDBAS_v5d

>  <STRUCTURE_Formula>
C11H12Cl2N2O5

>  <STRUCTURE_MolecularWeight>
323.1294

>  <STRUCTURE_ChemicalType>
defined organic

>  <STRUCTURE_TestedForm_DefinedOrganic>
parent

>  <STRUCTURE_Shown>
tested chemical

>  <TestSubstance_ChemicalName>
Chloramphenicol

>  <TestSubstance_CASRN>
56-75-7

>  <TestSubstance_Description>
single chemical compound

>  <ChemicalNote>
stereochem

>  <STRUCTURE_ChemicalName_IUPAC>
2,2-dichloro-N-[(1R,2R)-2-hydroxy-1-(hydroxymethyl)-2-(4-nitrophenyl)ethyl]acetamide

>  <STRUCTURE_SMILES>
O=C(C(Cl)Cl)N[C@H](CO)[C@@H](C1=CC=C([N+]([O-])=O)C=C1)O

>  <STRUCTURE_Parent_SMILES>
O=C(C(Cl)Cl)N[C@H](CO)[C@@H](C1=CC=C([N+]([O-])=O)C=C1)O

>  <STRUCTURE_InChI>
InChI=1/C11H12Cl2N2O5/c12-10(13)11(18)14-8(5-16)9(17)6-1-3-7(4-2-6)15(19)20/h1-4,8-10,16-17H,5H2,(H,14,18)/t8-,9-/m1/s1/f/h14H

>  <STRUCTURE_InChIKey>
WIIZWVCIJKGZOK-TUYINDPHDP

>  <StudyType>
Carcinogenicity

>  <Endpoint>
TD50; Tumor Target Sites

>  <Species>
rat

>  <ActivityOutcome_CPDBAS_Mutagenicity>
inactive

>  <ActivityScore_CPDBAS_Rat>
0

>  <TD50_Rat_Note>
no positive results

>  <TargetSites_Rat_Female>
no positive results

>  <ActivityOutcome_CPDBAS_Rat>
inactive

>  <ActivityOutcome_CPDBAS_SingleCellCall>
inactive

>  <ChemicalPage_URL>
http://potency.berkeley.edu/chempages/CHLORAMPHENICOL.html

$$$$



 12 12  0  0  0  0  0  0  0  0999 V2000
    0.0000   -2.3036    0.0000 O   0  0  0  0  0  0  0  0  0  0  0  0
    1.3300   -2.3036    0.0000 C   0  0  0  0  0  0  0  0  0  0  0  0
    1.9950   -1.1491    0.0000 C   0  0  0  0  0  0  0  0  0  0  0  0
    3.3250   -1.1491    0.0000 C   0  0  0  0  0  0  0  0  0  0  0  0
    3.9901   -2.3036    0.0000 C   0  0  0  0  0  0  0  0  0  0  0  0
    5.3201   -2.3036    0.0000 O   0  0  0  0  0  0  0  0  0  0  0  0
    3.3250   -3.4581    0.0000 C   0  0  0  0  0  0  0  0  0  0  0  0
    1.9950   -3.4581    0.0000 C   0  0  0  0  0  0  0  0  0  0  0  0
    1.3300   -4.6072    0.0000 Cl  0  0  0  0  0  0  0  0  0  0  0  0
    3.9901   -4.6072    0.0000 Cl  0  0  0  0  0  0  0  0  0  0  0  0
    3.9901    0.0000    0.0000 Cl  0  0  0  0  0  0  0  0  0  0  0  0
    1.3300    0.0000    0.0000 Cl  0  0  0  0  0  0  0  0  0  0  0  0
  1  2  2  0  0  0  0
  2  3  1  0  0  0  0
  2  8  1  0  0  0  0
  3  4  2  0  0  0  0
  3 12  1  0  0  0  0
  4  5  1  0  0  0  0
  4 11  1  0  0  0  0
  5  6  2  0  0  0  0
  5  7  1  0  0  0  0
  7  8  2  0  0  0  0
  7 10  1  0  0  0  0
  8  9  1  0  0  0  0
M  END
>  <DSSTox_RID>
20266

>  <DSSTox_CID>
266

>  <DSSTox_Generic_SID>
20266

>  <DSSTox_FileID>
274_CPDBAS_v5d

>  <STRUCTURE_Formula>
C6Cl4O2

>  <STRUCTURE_MolecularWeight>
245.875

>  <STRUCTURE_ChemicalType>
defined organic

>  <STRUCTURE_TestedForm_DefinedOrganic>
parent

>  <STRUCTURE_Shown>
tested chemical

>  <TestSubstance_ChemicalName>
Chloranil

>  <TestSubstance_CASRN>
118-75-2

>  <TestSubstance_Description>
single chemical compound

>  <STRUCTURE_ChemicalName_IUPAC>
2,3,5,6-tetrachlorocyclohexa-2,5-diene-1,4-dione

>  <STRUCTURE_SMILES>
O=C1C(=C(C(=O)C(=C1Cl)Cl)Cl)Cl

>  <STRUCTURE_Parent_SMILES>
O=C1C(=C(C(=O)C(=C1Cl)Cl)Cl)Cl

>  <STRUCTURE_InChI>
InChI=1/C6Cl4O2/c7-1-2(8)6(12)4(10)3(9)5(1)11

>  <STRUCTURE_InChIKey>
UGNWTBMOAKPKBL-UHFFFAOYAV

>  <StudyType>
Carcinogenicity

>  <Endpoint>
TD50; Tumor Target Sites

>  <Species>
mouse

>  <ActivityOutcome_CPDBAS_Mutagenicity>
active

>  <ActivityScore_CPDBAS_Mouse>
0

>  <TD50_Mouse_Note>
no positive results

>  <TargetSites_Mouse_Male>
no positive results

>  <TargetSites_Mouse_Female>
no positive results

>  <ActivityOutcome_CPDBAS_Mouse>
inactive

>  <ActivityOutcome_CPDBAS_SingleCellCall>
inactive

>  <ActivityOutcome_CPDBAS_MultiCellCall>
inactive

>  <ActivityOutcome_CPDBAS_MultiCellCall_Details>
multisex inactive

>  <Note_CPDBAS>
Mutagenicity_SAL_CPDB added v3a

>  <ChemicalPage_URL>
http://potency.berkeley.edu/chempages/CHLORANIL.html

$$$$



 20 22  0  0  0  0  0  0  0  0999 V2000
    1.4638    1.4178    0.0000 C   0  0  2  0  0  0  0  0  0  0  0  0
    3.7746    2.7527    0.0000 C   0  0  0  0  0  0  0  0  0  0  0  0
    5.0819    2.4029    0.0000 C   0  0  1  0  0  0  0  0  0  0  0  0
    2.9552    1.8137    0.0000 C   0  0  1  0  0  0  0  0  0  0  0  0
    4.4835    1.4178    0.0000 C   0  0  1  0  0  0  0  0  0  0  0  0
    6.7022    2.8356    0.0000 C   0  0  2  0  0  0  0  0  0  0  0  0
    7.9819    2.0346    0.0000 C   0  0  0  0  0  0  0  0  0  0  0  0
    7.2730    1.0863    0.0000 C   0  0  0  0  0  0  0  0  0  0  0  0
    6.0946    1.6019    0.0000 C   0  0  1  0  0  0  0  0  0  0  0  0
    5.1463    0.3775    0.0000 Cl  0  0  0  0  0  0  0  0  0  0  0  0
    6.3248    4.0140    0.0000 C   0  0  0  0  0  0  0  0  0  0  0  0
    6.9876    5.1003    0.0000 Cl  0  0  0  0  0  0  0  0  0  0  0  0
    5.2844    5.2844    0.0000 Cl  0  0  0  0  0  0  0  0  0  0  0  0
    7.6044    3.8206    0.0000 Cl  0  0  0  0  0  0  0  0  0  0  0  0
    9.2063    2.6422    0.0000 Cl  0  0  0  0  0  0  0  0  0  0  0  0
    7.9819    0.0000    0.0000 Cl  0  0  0  0  0  0  0  0  0  0  0  0
    2.3108    0.5708    0.0000 Cl  0  0  0  0  0  0  0  0  0  0  0  0
    0.0000    2.4581    0.0000 Cl  0  0  0  0  0  0  0  0  0  0  0  0
    3.7177    0.3058    0.0000 H   0  0  0  0  0  0  0  0  0  0  0  0
    5.5525    3.3637    0.0000 H   0  0  0  0  0  0  0  0  0  0  0  0
  2  1  1  0  0  0  0
  4  1  1  0  0  0  0
  1 18  1  6  0  0  0
  3  2  1  0  0  0  0
  5  3  1  0  0  0  0
  6  3  1  0  0  0  0
  5  4  1  0  0  0  0
  4 17  1  6  0  0  0
  9  5  1  0  0  0  0
  7  6  1  0  0  0  0
 11  6  1  6  0  0  0
 14  6  1  0  0  0  0
  8  7  2  0  0  0  0
 15  7  1  0  0  0  0
  9  8  1  0  0  0  0
 16  8  1  0  0  0  0
  9 11  1  6  0  0  0
 10  9  1  0  0  0  0
 12 11  1  0  0  0  0
 13 11  1  0  0  0  0
  5 19  1  1  0  0  0
  3 20  1  1  0  0  0
M  END
>  <DSSTox_RID>
20267

>  <DSSTox_CID>
267

>  <DSSTox_Generic_SID>
20267

>  <DSSTox_FileID>
275_CPDBAS_v5d

>  <STRUCTURE_Formula>
C10H6Cl8

>  <STRUCTURE_MolecularWeight>
409.7786

>  <STRUCTURE_ChemicalType>
defined organic

>  <STRUCTURE_TestedForm_DefinedOrganic>
parent

>  <STRUCTURE_Shown>
tested chemical

>  <TestSubstance_ChemicalName>
Chlordane

>  <TestSubstance_CASRN>
57-74-9

>  <TestSubstance_Description>
single chemical compound

>  <ChemicalNote>
stereochem

>  <STRUCTURE_ChemicalName_IUPAC>
1,2,4,5,6,7,8,8-octachloro-2,3,3a,4,7,7a-hexahydro-1H-4,7-methanoindene

>  <STRUCTURE_SMILES>
ClC2(C(Cl)3Cl)C(Cl)=C(Cl)C3(Cl)C1CC(Cl)C(Cl)C12

>  <STRUCTURE_Parent_SMILES>
ClC2(C(Cl)3Cl)C(Cl)=C(Cl)C3(Cl)C1CC(Cl)C(Cl)C12

>  <STRUCTURE_InChI>
InChI=1/C10H6Cl8/c11-3-1-2-4(5(3)12)9(16)7(14)6(13)8(2,15)10(9,17)18/h2-5H,1H2

>  <STRUCTURE_InChIKey>
BIWJNBZANLAXMG-UHFFFAOYAF

>  <StudyType>
Carcinogenicity

>  <Endpoint>
TD50; Tumor Target Sites

>  <Species>
rat; mouse

>  <ActivityOutcome_CPDBAS_Mutagenicity>
inactive

>  <ActivityScore_CPDBAS_Rat>
0

>  <TD50_Rat_Note>
no positive results

>  <TargetSites_Rat_Male>
no positive results

>  <TargetSites_Rat_Female>
no positive results

>  <ActivityOutcome_CPDBAS_Rat>
inactive

>  <TD50_Mouse_mg>
1.37

>  <TD50_Mouse_mmol>
0.00334

>  <ActivityScore_CPDBAS_Mouse>
56

>  <TD50_Mouse_Note>
TD50 is harmonic mean of more than one positive test; greater than ten-fold variation among TD50 values for positive results

>  <TargetSites_Mouse_Male>
liver

>  <TargetSites_Mouse_Female>
liver

>  <ActivityOutcome_CPDBAS_Mouse>
active

>  <ActivityOutcome_CPDBAS_SingleCellCall>
active

>  <ActivityOutcome_CPDBAS_MultiCellCall>
active

>  <ActivityOutcome_CPDBAS_MultiCellCall_Details>
multisex active

>  <Note_CPDBAS>
technical grade [12789-03-6] was used in some studies included in CPDB

>  <NTP_TechnicalReport>
TR 191

>  <ChemicalPage_URL>
http://potency.berkeley.edu/chempages/CHLORDANE,%20TECHNICAL%20GRADE.html

$$$$



 19 20  0  0  0  0  0  0  0  0999 V2000
    5.3611    3.4834    0.0000 C   0  0  0  0  0  0  0  0  0  0  0  0
    5.3611    2.0834    0.0000 C   0  0  0  0  0  0  0  0  0  0  0  0
    3.8882    4.3327    0.0000 C   0  0  1  0  0  0  0  0  0  0  0  0
    3.8882    2.7137    0.0000 C   0  0  2  0  0  0  0  0  0  0  0  0
    2.4152    3.4834    0.0000 C   0  0  1  0  0  0  0  0  0  0  0  0
    2.4152    2.0900    0.0000 C   0  0  2  0  0  0  0  0  0  0  0  0
    3.3773    5.7659    0.0000 C   0  0  0  0  0  0  0  0  0  0  0  0
    1.2076    1.3934    0.0000 C   0  0  0  0  0  0  0  0  0  0  0  0
    1.2076    4.1801    0.0000 C   0  0  0  0  0  0  0  0  0  0  0  0
    1.2076    0.0000    0.0000 O   0  0  0  0  0  0  0  0  0  0  0  0
    0.0000    2.0900    0.0000 O   0  0  0  0  0  0  0  0  0  0  0  0
    1.2076    5.5735    0.0000 O   0  0  0  0  0  0  0  0  0  0  0  0
    0.0000    3.4834    0.0000 O   0  0  0  0  0  0  0  0  0  0  0  0
    6.5754    1.3801    0.0000 Cl  0  0  0  0  0  0  0  0  0  0  0  0
    6.5754    4.1867    0.0000 Cl  0  0  0  0  0  0  0  0  0  0  0  0
    4.4256    6.6351    0.0000 Cl  0  0  0  0  0  0  0  0  0  0  0  0
    2.0967    6.2436    0.0000 Cl  0  0  0  0  0  0  0  0  0  0  0  0
    3.4967    1.2806    0.0000 Cl  0  0  0  0  0  0  0  0  0  0  0  0
    4.6665    5.2689    0.0000 Cl  0  0  0  0  0  0  0  0  0  0  0  0
  2  1  2  0  0  0  0
  3  1  1  0  0  0  0
 15  1  1  0  0  0  0
  4  2  1  0  0  0  0
 14  2  1  0  0  0  0
  5  3  1  0  0  0  0
  7  3  1  0  0  0  0
  3 19  1  6  0  0  0
  6  4  1  0  0  0  0
  4  7  1  0  0  0  0
  4 18  1  1  0  0  0
  6  5  1  0  0  0  0
  5  9  1  1  0  0  0
  6  8  1  1  0  0  0
 16  7  1  0  0  0  0
 17  7  1  0  0  0  0
 10  8  2  0  0  0  0
 11  8  1  0  0  0  0
 12  9  2  0  0  0  0
 13  9  1  0  0  0  0
M  END
>  <DSSTox_RID>
20268

>  <DSSTox_CID>
268

>  <DSSTox_Generic_SID>
20268

>  <DSSTox_FileID>
276_CPDBAS_v5d

>  <STRUCTURE_Formula>
C9H4Cl6O4

>  <STRUCTURE_MolecularWeight>
388.8437

>  <STRUCTURE_ChemicalType>
defined organic

>  <STRUCTURE_TestedForm_DefinedOrganic>
parent

>  <STRUCTURE_Shown>
tested chemical

>  <TestSubstance_ChemicalName>
Chlorendic acid

>  <TestSubstance_CASRN>
115-28-6

>  <TestSubstance_Description>
single chemical compound

>  <ChemicalNote>
stereochem

>  <STRUCTURE_ChemicalName_IUPAC>
1,4,5,6,7,7-hexachlorobicyclo[2.2.1]hept-5-ene-2,3-dicarboxylic acid

>  <STRUCTURE_SMILES>
ClC2(Cl)C1(Cl)C(\Cl)=C(\Cl)C2(Cl)C(C1C(O)=O)C(O)=O

>  <STRUCTURE_Parent_SMILES>
ClC2(Cl)C1(Cl)C(\Cl)=C(\Cl)C2(Cl)C(C1C(O)=O)C(O)=O

>  <STRUCTURE_InChI>
InChI=1/C9H4Cl6O4/c10-3-4(11)8(13)2(6(18)19)1(5(16)17)7(3,12)9(8,14)15/h1-2H,(H,16,17)(H,18,19)/f/h16,18H

>  <STRUCTURE_InChIKey>
DJKGDNKYTKCJKD-CUNFQGHECZ

>  <StudyType>
Carcinogenicity

>  <Endpoint>
TD50; Tumor Target Sites

>  <Species>
rat; mouse

>  <ActivityOutcome_CPDBAS_Mutagenicity>
inactive

>  <TD50_Rat_mg>
40.8

>  <TD50_Rat_mmol>
0.105

>  <ActivityScore_CPDBAS_Rat>
36

>  <TD50_Rat_Note>
TD50 is harmonic mean of more than one positive test

>  <TargetSites_Rat_Male>
liver; pancreas

>  <TargetSites_Rat_Female>
liver

>  <ActivityOutcome_CPDBAS_Rat>
active

>  <TD50_Mouse_mg>
141

>  <TD50_Mouse_mmol>
0.363

>  <ActivityScore_CPDBAS_Mouse>
33

>  <TargetSites_Mouse_Male>
liver

>  <TargetSites_Mouse_Female>
no positive results

>  <ActivityOutcome_CPDBAS_Mouse>
active

>  <ActivityOutcome_CPDBAS_SingleCellCall>
active

>  <ActivityOutcome_CPDBAS_MultiCellCall>
active

>  <ActivityOutcome_CPDBAS_MultiCellCall_Details>
multisite active; multisex active; multispecies active

>  <NTP_TechnicalReport>
TR 304

>  <ChemicalPage_URL>
http://potency.berkeley.edu/chempages/CHLORENDIC%20ACID.html

$$$$



 31 34  0  0  1  0  0  0  0  0999 V2000
    6.9337   -5.7839    0.0000 H   0  0  0  0  0  0  0  0  0  0  0  0
    4.4831   -5.5400    0.0000 H   0  0  0  0  0  0  0  0  0  0  0  0
    8.6642    0.0000    0.0000 C   0  0  0  0  0  0  0  0  0  0  0  0
    7.7235   -0.8943    0.0000 C   0  0  0  0  0  0  0  0  0  0  0  0
    6.4343   -0.5575    0.0000 O   0  0  0  0  0  0  0  0  0  0  0  0
    8.1416   -2.5784    0.0000 C   0  0  1  0  0  0  0  0  0  0  0  0
    8.9081   -3.6469    0.0000 C   0  0  0  0  0  0  0  0  0  0  0  0
    8.1183   -4.7270    0.0000 C   0  0  0  0  0  0  0  0  0  0  0  0
    6.8756   -4.3089    0.0000 C   0  0  2  0  0  0  0  0  0  0  0  0
    5.7142   -4.9593    0.0000 C   0  0  2  0  0  0  0  0  0  0  0  0
    5.7142   -6.2949    0.0000 C   0  0  0  0  0  0  0  0  0  0  0  0
    4.5644   -6.9569    0.0000 C   0  0  0  0  0  0  0  0  0  0  0  0
    4.5644   -8.2809    0.0000 Cl  0  0  0  0  0  0  0  0  0  0  0  0
    3.4262   -6.2949    0.0000 C   0  0  0  0  0  0  0  0  0  0  0  0
    2.2880   -6.9569    0.0000 C   0  0  0  0  0  0  0  0  0  0  0  0
    1.1382   -6.2949    0.0000 C   0  0  0  0  0  0  0  0  0  0  0  0
    0.0000   -6.9569    0.0000 O   0  0  0  0  0  0  0  0  0  0  0  0
    1.1498   -4.9593    0.0000 C   0  0  0  0  0  0  0  0  0  0  0  0
    2.2880   -4.3089    0.0000 C   0  0  0  0  0  0  0  0  0  0  0  0
    3.4262   -4.9825    0.0000 C   0  0  1  0  0  0  0  0  0  0  0  0
    3.4494   -3.6469    0.0000 C   0  0  0  0  0  0  0  0  0  0  0  0
    4.5760   -4.3089    0.0000 C   0  0  2  0  0  0  0  0  0  0  0  0
    4.5760   -2.9965    0.0000 C   0  0  0  0  0  0  0  0  0  0  0  0
    5.7374   -2.3228    0.0000 C   0  0  0  0  0  0  0  0  0  0  0  0
    6.8756   -2.9965    0.0000 C   0  0  2  0  0  0  0  0  0  0  0  0
    6.7711   -1.6608    0.0000 C   0  0  0  0  0  0  0  0  0  0  0  0
    9.3262   -2.0209    0.0000 O   0  0  0  0  0  0  0  0  0  0  0  0
   10.4180   -2.7874    0.0000 C   0  0  0  0  0  0  0  0  0  0  0  0
   11.6142   -2.2299    0.0000 C   0  0  0  0  0  0  0  0  0  0  0  0
   10.3018   -4.0998    0.0000 O   0  0  0  0  0  0  0  0  0  0  0  0
    5.6910   -3.8792    0.0000 H   0  0  0  0  0  0  0  0  0  0  0  0
  9  1  1  6  0  0  0
 22  2  1  6  0  0  0
  3  4  1  0  0  0  0
  4  5  2  0  0  0  0
  6  4  1  1  0  0  0
  6  7  1  0  0  0  0
  6 25  1  0  0  0  0
  6 27  1  6  0  0  0
  7  8  1  0  0  0  0
  8  9  1  0  0  0  0
  9 10  1  0  0  0  0
  9 25  1  0  0  0  0
 10 11  1  0  0  0  0
 10 22  1  0  0  0  0
 10 31  1  1  0  0  0
 11 12  2  0  0  0  0
 12 13  1  0  0  0  0
 12 14  1  0  0  0  0
 14 15  2  0  0  0  0
 14 20  1  0  0  0  0
 15 16  1  0  0  0  0
 16 17  2  0  0  0  0
 16 18  1  0  0  0  0
 18 19  1  0  0  0  0
 19 20  1  0  0  0  0
 20 21  1  1  0  0  0
 20 22  1  0  0  0  0
 22 23  1  0  0  0  0
 23 24  1  0  0  0  0
 24 25  1  0  0  0  0
 25 26  1  1  0  0  0
 27 28  1  0  0  0  0
 28 29  1  0  0  0  0
 28 30  2  0  0  0  0
M  END
>  <DSSTox_RID>
20274

>  <DSSTox_CID>
274

>  <DSSTox_Generic_SID>
20274

>  <DSSTox_FileID>
282_CPDBAS_v5d

>  <STRUCTURE_Formula>
C23H29ClO4

>  <STRUCTURE_MolecularWeight>
404.92696

>  <STRUCTURE_ChemicalType>
defined organic

>  <STRUCTURE_TestedForm_DefinedOrganic>
parent

>  <STRUCTURE_Shown>
tested chemical

>  <TestSubstance_ChemicalName>
Chlormadinone acetate

>  <TestSubstance_CASRN>
302-22-7

>  <TestSubstance_Description>
single chemical compound

>  <ChemicalNote>
stereochem

>  <STRUCTURE_ChemicalName_IUPAC>
6-chloro-3,20-dioxopregna-4,6-dien-17-yl acetate

>  <STRUCTURE_SMILES>
CC(=O)[C@]2(CC[C@H]3[C@@H]4/C=C(/Cl)\C1=C\C(=O)CC[C@]1(C)[C@H]4CC[C@]23C)OC(C)=O

>  <STRUCTURE_Parent_SMILES>
CC(=O)[C@]2(CC[C@H]3[C@@H]4/C=C(/Cl)\C1=C\C(=O)CC[C@]1(C)[C@H]4CC[C@]23C)OC(C)=O

>  <STRUCTURE_InChI>
InChI=1/C23H29ClO4/c1-13(25)23(28-14(2)26)10-7-18-16-12-20(24)19-11-15(27)5-8-21(19,3)17(16)6-9-22(18,23)4/h11-12,16-18H,5-10H2,1-4H3/t16-,17+,18+,21-,22+,23+/m1/s1

>  <STRUCTURE_InChIKey>
QMBJSIBWORFWQT-DFXBJWIEBX

>  <StudyType>
Carcinogenicity

>  <Endpoint>
TD50; Tumor Target Sites

>  <Species>
mouse

>  <ActivityScore_CPDBAS_Mouse>
0

>  <TD50_Mouse_Note>
no positive results

>  <ActivityOutcome_CPDBAS_Mouse>
inactive

>  <ActivityOutcome_CPDBAS_SingleCellCall>
inactive

>  <Note_CPDBAS>
female mice used mammary tumor virus pos stra(MTV+) with high spontaneous incidence of mammary tumors; mammary gland histopath only; no author opinion given since study measured mammary tumor latency; TargetSites_Mouse modified v3a; TargetSites_Mouse_Female modified v5a

>  <ChemicalPage_URL>
http://potency.berkeley.edu/chempages/CHLORMADINONE%20ACETATE.html

$$$$



 15 16  0  0  0  0  0  0  0  0999 V2000
    9.2080   -2.6611    0.0000 N   0  0  0  0  0  0  0  0  0  0  0  0
    8.0570   -1.9981    0.0000 C   0  0  0  0  0  0  0  0  0  0  0  0
    6.9060   -2.6611    0.0000 C   0  0  0  0  0  0  0  0  0  0  0  0
    5.7550   -1.9981    0.0000 C   0  0  0  0  0  0  0  0  0  0  0  0
    5.7550   -0.6630    0.0000 C   0  0  0  0  0  0  0  0  0  0  0  0
    6.9060    0.0000    0.0000 C   0  0  0  0  0  0  0  0  0  0  0  0
    8.0570   -0.6630    0.0000 C   0  0  0  0  0  0  0  0  0  0  0  0
    4.6040    0.0000    0.0000 O   0  0  0  0  0  0  0  0  0  0  0  0
    3.4530   -0.6630    0.0000 C   0  0  0  0  0  0  0  0  0  0  0  0
    3.4530   -1.9981    0.0000 C   0  0  0  0  0  0  0  0  0  0  0  0
    2.3020   -2.6611    0.0000 C   0  0  0  0  0  0  0  0  0  0  0  0
    1.1510   -1.9981    0.0000 C   0  0  0  0  0  0  0  0  0  0  0  0
    1.1510   -0.6630    0.0000 C   0  0  0  0  0  0  0  0  0  0  0  0
    2.3020    0.0000    0.0000 C   0  0  0  0  0  0  0  0  0  0  0  0
    0.0000   -2.6611    0.0000 Cl  0  0  0  0  0  0  0  0  0  0  0  0
  1  2  1  0  0  0  0
  2  3  2  0  0  0  0
  2  7  1  0  0  0  0
  3  4  1  0  0  0  0
  4  5  2  0  0  0  0
  5  6  1  0  0  0  0
  5  8  1  0  0  0  0
  6  7  2  0  0  0  0
  8  9  1  0  0  0  0
  9 10  2  0  0  0  0
  9 14  1  0  0  0  0
 10 11  1  0  0  0  0
 11 12  2  0  0  0  0
 12 13  1  0  0  0  0
 12 15  1  0  0  0  0
 13 14  2  0  0  0  0
M  END
>  <DSSTox_RID>
20275

>  <DSSTox_CID>
275

>  <DSSTox_Generic_SID>
20275

>  <DSSTox_FileID>
283_CPDBAS_v5d

>  <STRUCTURE_Formula>
C12H10ClNO

>  <STRUCTURE_MolecularWeight>
219.6701

>  <STRUCTURE_ChemicalType>
defined organic

>  <STRUCTURE_TestedForm_DefinedOrganic>
parent

>  <STRUCTURE_Shown>
tested chemical

>  <TestSubstance_ChemicalName>
4-Chloro-4'-aminodiphenylether

>  <TestSubstance_CASRN>
101-79-1

>  <TestSubstance_Description>
single chemical compound

>  <STRUCTURE_ChemicalName_IUPAC>
4-[(4-chlorophenyl)oxy]aniline

>  <STRUCTURE_SMILES>
NC1=CC=C(C=C1)OC2=CC=C(C=C2)Cl

>  <STRUCTURE_Parent_SMILES>
NC1=CC=C(C=C1)OC2=CC=C(C=C2)Cl

>  <STRUCTURE_InChI>
InChI=1/C12H10ClNO/c13-9-1-5-11(6-2-9)15-12-7-3-10(14)4-8-12/h1-8H,14H2

>  <STRUCTURE_InChIKey>
YTISFYMPVILQRL-UHFFFAOYAO

>  <StudyType>
Carcinogenicity

>  <Endpoint>
TD50; Tumor Target Sites

>  <Species>
rat; mouse

>  <TD50_Rat_mg>
37.6

>  <TD50_Rat_mmol>
0.171

>  <ActivityScore_CPDBAS_Rat>
34

>  <TargetSites_Rat_Male>
liver

>  <ActivityOutcome_CPDBAS_Rat>
active

>  <TD50_Mouse_mg>
346

>  <TD50_Mouse_mmol>
1.58

>  <ActivityScore_CPDBAS_Mouse>
26

>  <TargetSites_Mouse_Male>
no positive results

>  <TargetSites_Mouse_Female>
urinary bladder; vascular system

>  <ActivityOutcome_CPDBAS_Mouse>
active

>  <ActivityOutcome_CPDBAS_SingleCellCall>
active

>  <ActivityOutcome_CPDBAS_MultiCellCall>
active

>  <ActivityOutcome_CPDBAS_MultiCellCall_Details>
multisite active; multisex active; multispecies active

>  <ChemicalPage_URL>
http://potency.berkeley.edu/chempages/4-CHLORO-4'-AMINODIPHENYLETHER.html

$$$$



 11 11  0  0  0  0  0  0  0  0999 V2000
    4.3388   -2.3406    0.0000 O   0  0  0  0  0  0  0  0  0  0  0  0
    3.5569   -3.4189    0.0000 C   0  0  3  0  0  0  0  0  0  0  0  0
    3.5569   -1.2674    0.0000 C   0  0  0  0  0  0  0  0  0  0  0  0
    2.2895   -3.0050    0.0000 C   0  0  0  0  0  0  0  0  0  0  0  0
    2.2895   -1.6762    0.0000 C   0  0  0  0  0  0  0  0  0  0  0  0
    3.9657    0.0000    0.0000 O   0  0  0  0  0  0  0  0  0  0  0  0
    1.2163   -0.8943    0.0000 Cl  0  0  0  0  0  0  0  0  0  0  0  0
    1.2163   -3.7869    0.0000 C   0  0  0  0  0  0  0  0  0  0  0  0
    0.0000   -3.2452    0.0000 Cl  0  0  0  0  0  0  0  0  0  0  0  0
    1.3543   -5.1105    0.0000 Cl  0  0  0  0  0  0  0  0  0  0  0  0
    3.9657   -4.6812    0.0000 O   0  0  0  0  0  0  0  0  0  0  0  0
  1  2  1  0  0  0  0
  1  3  1  0  0  0  0
  2  4  1  0  0  0  0
  2 11  1  0  0  0  0
  3  5  1  0  0  0  0
  3  6  2  0  0  0  0
  4  5  2  0  0  0  0
  4  8  1  0  0  0  0
  5  7  1  0  0  0  0
  8  9  1  0  0  0  0
  8 10  1  0  0  0  0
M  END
>  <DSSTox_RID>
20276

>  <DSSTox_CID>
276

>  <DSSTox_Generic_SID>
20276

>  <DSSTox_FileID>
284_CPDBAS_v5d

>  <STRUCTURE_Formula>
C5H3Cl3O3

>  <STRUCTURE_MolecularWeight>
217.4345

>  <STRUCTURE_ChemicalType>
defined organic

>  <STRUCTURE_TestedForm_DefinedOrganic>
parent

>  <STRUCTURE_Shown>
tested chemical

>  <TestSubstance_ChemicalName>
3-Chloro-4-(dichloromethyl)-5-hydroxy-2(5H)-furanone

>  <TestSubstance_CASRN>
77439-76-0

>  <TestSubstance_Description>
single chemical compound

>  <ChemicalNote>
MX, tautomers

>  <STRUCTURE_ChemicalName_IUPAC>
3-chloro-4-(dichloromethyl)-5-hydroxyfuran-2(5H)-one

>  <STRUCTURE_SMILES>
O=C1OC(O)C(C(Cl)Cl)=C1Cl

>  <STRUCTURE_Parent_SMILES>
O=C1OC(O)C(C(Cl)Cl)=C1Cl

>  <STRUCTURE_InChI>
InChI=1/C5H3Cl3O3/c6-2-1(3(7)8)4(9)11-5(2)10/h3-4,9H

>  <STRUCTURE_InChIKey>
WNTRMRXAGJOLCU-UHFFFAOYAU

>  <StudyType>
Carcinogenicity

>  <Endpoint>
TD50; Tumor Target Sites

>  <Species>
rat

>  <TD50_Rat_mg>
0.583

>  <TD50_Rat_mmol>
0.00268

>  <ActivityScore_CPDBAS_Rat>
52

>  <TD50_Rat_Note>
TD50 is harmonic mean of more than one positive test

>  <TargetSites_Rat_Male>
adrenal gland; hematopoietic system; liver; lung; pancreas; thyroid gland

>  <TargetSites_Rat_Female>
adrenal gland; hematopoietic system; liver; mammary gland; thyroid gland

>  <ActivityOutcome_CPDBAS_Rat>
active

>  <ActivityOutcome_CPDBAS_SingleCellCall>
active

>  <ActivityOutcome_CPDBAS_MultiCellCall>
active

>  <ActivityOutcome_CPDBAS_MultiCellCall_Details>
multisite active; multisex active

>  <Note_CPDBAS>
Rat added v3a; chemical added v3a

>  <ChemicalPage_URL>
http://potency.berkeley.edu/chempages/3-CHLORO-4-(DICHLOROMETHYL)-5-HYDROXY-2(5H)-FURANO.html

$$$$



 21 22  0  0  1  0  0  0  0  0999 V2000
    1.1685   -1.8218    0.0000 C   0  0  2  0  0  0  0  0  0  0  0  0
    1.1685   -3.1559    0.0000 C   0  0  0  0  0  0  0  0  0  0  0  0
    2.3094   -3.8276    0.0000 C   0  0  1  0  0  0  0  0  0  0  0  0
    3.4595   -3.1559    0.0000 C   0  0  0  0  0  0  0  0  0  0  0  0
    3.4595   -1.8218    0.0000 N   0  0  0  0  0  0  0  0  0  0  0  0
    2.3094   -1.1501    0.0000 C   0  0  0  0  0  0  0  0  0  0  0  0
    0.0000   -1.1685    0.0000 C   0  0  0  0  0  0  0  0  0  0  0  0
    2.2910   -5.1617    0.0000 C   0  0  0  0  0  0  0  0  0  0  0  0
    4.6004   -1.1501    0.0000 S   0  0  0  0  0  0  0  0  0  0  0  0
    5.7505   -1.8218    0.0000 C   0  0  0  0  0  0  0  0  0  0  0  0
    3.9288    0.0000    0.0000 O   0  0  0  0  0  0  0  0  0  0  0  0
    5.2721    0.0000    0.0000 O   0  0  0  0  0  0  0  0  0  0  0  0
    5.7505   -3.1559    0.0000 C   0  0  0  0  0  0  0  0  0  0  0  0
    6.8914   -3.8092    0.0000 C   0  0  0  0  0  0  0  0  0  0  0  0
    8.0507   -3.1559    0.0000 C   0  0  0  0  0  0  0  0  0  0  0  0
    8.0507   -1.8218    0.0000 C   0  0  0  0  0  0  0  0  0  0  0  0
    6.9098   -1.1685    0.0000 C   0  0  0  0  0  0  0  0  0  0  0  0
    6.8914   -5.1433    0.0000 C   0  0  0  0  0  0  0  0  0  0  0  0
    5.7229   -5.7965    0.0000 O   0  0  0  0  0  0  0  0  0  0  0  0
    8.0323   -5.8149    0.0000 O   0  0  0  0  0  0  0  0  0  0  0  0
    9.2008   -3.8276    0.0000 Cl  0  0  0  0  0  0  0  0  0  0  0  0
  1  7  1  1  0  0  0
  1  2  1  0  0  0  0
  1  6  1  0  0  0  0
  2  3  1  0  0  0  0
  3  4  1  0  0  0  0
  3  8  1  1  0  0  0
  4  5  1  0  0  0  0
  5  6  1  0  0  0  0
  5  9  1  0  0  0  0
  9 11  2  0  0  0  0
  9 12  2  0  0  0  0
  9 10  1  0  0  0  0
 10 13  2  0  0  0  0
 10 17  1  0  0  0  0
 13 14  1  0  0  0  0
 14 15  2  0  0  0  0
 14 18  1  0  0  0  0
 15 16  1  0  0  0  0
 15 21  1  0  0  0  0
 16 17  2  0  0  0  0
 18 19  2  0  0  0  0
 18 20  1  0  0  0  0
M  END
>  <DSSTox_RID>
20277

>  <DSSTox_CID>
277

>  <DSSTox_Generic_SID>
20277

>  <DSSTox_FileID>
285_CPDBAS_v5d

>  <STRUCTURE_Formula>
C14H18ClNO4S

>  <STRUCTURE_MolecularWeight>
331.8135

>  <STRUCTURE_ChemicalType>
defined organic

>  <STRUCTURE_TestedForm_DefinedOrganic>
parent

>  <STRUCTURE_Shown>
tested chemical

>  <TestSubstance_ChemicalName>
2-Chloro-5-(3,5-dimethylpiperidinosulphonyl)benzoic acid

>  <TestSubstance_CASRN>
37087-94-8

>  <TestSubstance_Description>
single chemical compound

>  <STRUCTURE_ChemicalName_IUPAC>
2-chloro-5-{[(3R,5S)-3,5-dimethylpiperidin-1-yl]sulfonyl}benzoic acid

>  <STRUCTURE_SMILES>
O=S(N1C[C@@H](C)C[C@H](C1)C)(C2=CC(C(O)=O)=C(Cl)C=C2)=O

>  <STRUCTURE_Parent_SMILES>
O=S(N1C[C@@H](C)C[C@H](C1)C)(C2=CC(C(O)=O)=C(Cl)C=C2)=O

>  <STRUCTURE_InChI>
InChI=1/C14H18ClNO4S/c1-9-5-10(2)8-16(7-9)21(19,20)11-3-4-13(15)12(6-11)14(17)18/h3-4,6,9-10H,5,7-8H2,1-2H3,(H,17,18)/t9-,10+/f/h17H

>  <STRUCTURE_InChIKey>
IFXSWTIWFGIXQO-SICBTJJLDY

>  <StudyType>
Carcinogenicity

>  <Endpoint>
TD50; Tumor Target Sites

>  <Species>
rat

>  <TD50_Rat_mg>
4.85

>  <TD50_Rat_mmol>
0.0146

>  <ActivityScore_CPDBAS_Rat>
45

>  <TargetSites_Rat_Male>
liver

>  <ActivityOutcome_CPDBAS_Rat>
active

>  <ActivityOutcome_CPDBAS_SingleCellCall>
active

>  <Note_CPDBAS>
structure modified v5b

>  <ChemicalPage_URL>
http://potency.berkeley.edu/chempages/2-CHLORO-5-(3,5-DIMETHYLPIPERIDINOSULPHONYL)BENZOI.html

$$$$



 13 13  0  0  0  0  0  0  0  0999 V2000
    5.7563    0.0000    0.0000 Cl  0  0  0  0  0  0  0  0  0  0  0  0
    4.6092   -0.6634    0.0000 C   0  0  0  0  0  0  0  0  0  0  0  0
    4.6092   -1.9902    0.0000 C   0  0  0  0  0  0  0  0  0  0  0  0
    3.4552   -2.6605    0.0000 C   0  0  0  0  0  0  0  0  0  0  0  0
    2.3011   -1.9902    0.0000 C   0  0  0  0  0  0  0  0  0  0  0  0
    2.3011   -0.6634    0.0000 C   0  0  0  0  0  0  0  0  0  0  0  0
    3.4552    0.0000    0.0000 C   0  0  0  0  0  0  0  0  0  0  0  0
    1.1540   -2.6605    0.0000 N   0  3  0  0  0  0  0  0  0  0  0  0
    1.1540   -3.9873    0.0000 O   0  0  0  0  0  0  0  0  0  0  0  0
    0.0000   -1.9902    0.0000 O   0  5  0  0  0  0  0  0  0  0  0  0
    5.7563   -2.6605    0.0000 N   0  3  0  0  0  0  0  0  0  0  0  0
    5.7563   -3.9873    0.0000 O   0  0  0  0  0  0  0  0  0  0  0  0
    6.9103   -1.9902    0.0000 O   0  5  0  0  0  0  0  0  0  0  0  0
  1  2  1  0  0  0  0
  2  3  2  0  0  0  0
  2  7  1  0  0  0  0
  3  4  1  0  0  0  0
  3 11  1  0  0  0  0
  4  5  2  0  0  0  0
  5  6  1  0  0  0  0
  5  8  1  0  0  0  0
  6  7  2  0  0  0  0
  8  9  2  0  0  0  0
  8 10  1  0  0  0  0
 11 12  2  0  0  0  0
 11 13  1  0  0  0  0
M  END
>  <DSSTox_RID>
20278

>  <DSSTox_CID>
278

>  <DSSTox_Generic_SID>
20278

>  <DSSTox_FileID>
286_CPDBAS_v5d

>  <STRUCTURE_Formula>
C6H3ClN2O4

>  <STRUCTURE_MolecularWeight>
202.552

>  <STRUCTURE_ChemicalType>
defined organic

>  <STRUCTURE_TestedForm_DefinedOrganic>
parent

>  <STRUCTURE_Shown>
tested chemical

>  <TestSubstance_ChemicalName>
1-Chloro-2,4-dinitrobenzene

>  <TestSubstance_CASRN>
97-00-7

>  <TestSubstance_Description>
single chemical compound

>  <STRUCTURE_ChemicalName_IUPAC>
1-chloro-2,4-dinitrobenzene

>  <STRUCTURE_SMILES>
ClC1=C(C=C(C=C1)[N+](=O)[O-])[N+](=O)[O-]

>  <STRUCTURE_Parent_SMILES>
ClC1=C(C=C(C=C1)[N+](=O)[O-])[N+](=O)[O-]

>  <STRUCTURE_InChI>
InChI=1/C6H3ClN2O4/c7-5-2-1-4(8(10)11)3-6(5)9(12)13/h1-3H

>  <STRUCTURE_InChIKey>
VYZAHLCBVHPDDF-UHFFFAOYAS

>  <StudyType>
Carcinogenicity

>  <Endpoint>
TD50; Tumor Target Sites

>  <Species>
rat; mouse

>  <ActivityScore_CPDBAS_Rat>
0

>  <TD50_Rat_Note>
no positive results

>  <TargetSites_Rat_Male>
no positive results

>  <ActivityOutcome_CPDBAS_Rat>
inactive

>  <ActivityScore_CPDBAS_Mouse>
0

>  <TD50_Mouse_Note>
no positive results

>  <TargetSites_Mouse_Male>
no positive results

>  <TargetSites_Mouse_Female>
no positive results

>  <ActivityOutcome_CPDBAS_Mouse>
inactive

>  <ActivityOutcome_CPDBAS_SingleCellCall>
inactive

>  <ActivityOutcome_CPDBAS_MultiCellCall>
inactive

>  <ActivityOutcome_CPDBAS_MultiCellCall_Details>
multisex inactive; multispecies inactive

>  <ChemicalPage_URL>
http://potency.berkeley.edu/chempages/1-CHLORO-2,4-DINITROBENZENE.html

$$$$



  5  4  0  0  0  0  0  0  0  0999 V2000
    3.4567   -1.9945    0.0000 C   0  0  0  0  0  0  0  0  0  0  0  0
    2.3056   -1.3308    0.0000 C   0  0  0  0  0  0  0  0  0  0  0  0
    2.3056    0.0000    0.0000 C   0  0  0  0  0  0  0  0  0  0  0  0
    1.1511   -1.9945    0.0000 C   0  0  0  0  0  0  0  0  0  0  0  0
    0.0000   -1.3308    0.0000 Cl  0  0  0  0  0  0  0  0  0  0  0  0
  1  2  1  0  0  0  0
  2  3  2  0  0  0  0
  2  4  1  0  0  0  0
  4  5  1  0  0  0  0
M  END
>  <DSSTox_RID>
40778

>  <DSSTox_CID>
279

>  <DSSTox_Generic_SID>
20279

>  <DSSTox_FileID>
287_CPDBAS_v5d

>  <STRUCTURE_Formula>
C4H7Cl

>  <STRUCTURE_MolecularWeight>
90.5523

>  <STRUCTURE_ChemicalType>
defined organic

>  <STRUCTURE_TestedForm_DefinedOrganic>
parent

>  <STRUCTURE_Shown>
tested chemical

>  <TestSubstance_ChemicalName>
3-Chloro-2-methylpropene

>  <TestSubstance_CASRN>
563-47-3

>  <TestSubstance_Description>
single chemical compound

>  <STRUCTURE_ChemicalName_IUPAC>
3-chloro-2-methylprop-1-ene

>  <STRUCTURE_SMILES>
CC(=C)CCl

>  <STRUCTURE_Parent_SMILES>
CC(=C)CCl

>  <STRUCTURE_InChI>
InChI=1/C4H7Cl/c1-4(2)3-5/h1,3H2,2H3

>  <STRUCTURE_InChIKey>
OHXAOPZTJOUYKM-UHFFFAOYAV

>  <StudyType>
Carcinogenicity

>  <Endpoint>
TD50; Tumor Target Sites

>  <Species>
mouse

>  <ActivityOutcome_CPDBAS_Mutagenicity>
inactive

>  <TD50_Mouse_mg>
1000

>  <TD50_Mouse_mmol>
11

>  <ActivityScore_CPDBAS_Mouse>
16

>  <TD50_Mouse_Note>
TD50 is harmonic mean of more than one positive test

>  <TargetSites_Mouse_Male>
stomach

>  <TargetSites_Mouse_Female>
harderian gland; stomach

>  <ActivityOutcome_CPDBAS_Mouse>
active

>  <ActivityOutcome_CPDBAS_SingleCellCall>
active

>  <ActivityOutcome_CPDBAS_MultiCellCall>
active

>  <ActivityOutcome_CPDBAS_MultiCellCall_Details>
multisite active; multisex active

>  <Note_CPDBAS>
Mouse added v5a; Mutagenicity_SAL_CPDB added v5a; chemical added v5a

>  <ChemicalPage_URL>
http://potency.berkeley.edu/chempages/3-CHLORO-2-METHYLPROPENE.html

$$$$



  5  4  0  0  0  0  0  0  0  0999 V2000
    3.4567   -1.9945    0.0000 C   0  0  0  0  0  0  0  0  0  0  0  0
    2.3056   -1.3308    0.0000 C   0  0  0  0  0  0  0  0  0  0  0  0
    2.3056    0.0000    0.0000 C   0  0  0  0  0  0  0  0  0  0  0  0
    1.1511   -1.9945    0.0000 C   0  0  0  0  0  0  0  0  0  0  0  0
    0.0000   -1.3308    0.0000 Cl  0  0  0  0  0  0  0  0  0  0  0  0
  1  2  1  0  0  0  0
  2  3  2  0  0  0  0
  2  4  1  0  0  0  0
  4  5  1  0  0  0  0
M  END
>  <DSSTox_RID>
20279

>  <DSSTox_CID>
279

>  <DSSTox_Generic_SID>
24788

>  <DSSTox_FileID>
288_CPDBAS_v5d

>  <STRUCTURE_Formula>
C4H7Cl

>  <STRUCTURE_MolecularWeight>
90.5523

>  <STRUCTURE_ChemicalType>
defined organic

>  <STRUCTURE_TestedForm_DefinedOrganic>
parent

>  <STRUCTURE_Shown>
tested chemical

>  <TestSubstance_ChemicalName>
3-Chloro-2-methylpropene, technical grade (containing 5% dimethylvinyl  chloride)

>  <TestSubstance_CASRN>
563-47-3

>  <TestSubstance_Description>
single chemical compound

>  <STRUCTURE_ChemicalName_IUPAC>
3-chloro-2-methylprop-1-ene

>  <STRUCTURE_SMILES>
CC(=C)CCl

>  <STRUCTURE_Parent_SMILES>
CC(=C)CCl

>  <STRUCTURE_InChI>
InChI=1/C4H7Cl/c1-4(2)3-5/h1,3H2,2H3

>  <STRUCTURE_InChIKey>
OHXAOPZTJOUYKM-UHFFFAOYAV

>  <StudyType>
Carcinogenicity

>  <Endpoint>
TD50; Tumor Target Sites

>  <Species>
rat; mouse

>  <ActivityOutcome_CPDBAS_Mutagenicity>
active

>  <TD50_Rat_mg>
113

>  <TD50_Rat_mmol>
1.25

>  <ActivityScore_CPDBAS_Rat>
25

>  <TD50_Rat_Note>
TD50 is harmonic mean of more than one positive test

>  <TargetSites_Rat_Male>
stomach

>  <TargetSites_Rat_Female>
stomach

>  <ActivityOutcome_CPDBAS_Rat>
active

>  <TD50_Mouse_mg>
77.7

>  <TD50_Mouse_mmol>
0.858

>  <ActivityScore_CPDBAS_Mouse>
29

>  <TD50_Mouse_Note>
TD50 is harmonic mean of more than one positive test

>  <TargetSites_Mouse_Male>
stomach

>  <TargetSites_Mouse_Female>
stomach

>  <ActivityOutcome_CPDBAS_Mouse>
active

>  <ActivityOutcome_CPDBAS_SingleCellCall>
active

>  <ActivityOutcome_CPDBAS_MultiCellCall>
active

>  <ActivityOutcome_CPDBAS_MultiCellCall_Details>
multisex active; multispecies active

>  <NTP_TechnicalReport>
TR 300

>  <ChemicalPage_URL>
http://potency.berkeley.edu/chempages/3-CHLORO-2-METHYLPROPENE,%20TECHNICAL%20GRADE%20(CONTAIN.html

$$$$



 10 10  0  0  0  0  0  0  0  0999 V2000
    2.6582    0.0000    0.0000 Cl  0  0  0  0  0  0  0  0  0  0  0  0
    1.9971   -1.1499    0.0000 C   0  0  0  0  0  0  0  0  0  0  0  0
    2.6582   -2.3044    0.0000 C   0  0  0  0  0  0  0  0  0  0  0  0
    1.9971   -3.4542    0.0000 C   0  0  0  0  0  0  0  0  0  0  0  0
    0.6657   -3.4542    0.0000 C   0  0  0  0  0  0  0  0  0  0  0  0
    0.0000   -2.3044    0.0000 C   0  0  0  0  0  0  0  0  0  0  0  0
    0.6657   -1.1499    0.0000 C   0  0  0  0  0  0  0  0  0  0  0  0
    3.9896   -2.3044    0.0000 N   0  3  0  0  0  0  0  0  0  0  0  0
    4.6553   -1.1499    0.0000 O   0  0  0  0  0  0  0  0  0  0  0  0
    4.6553   -3.4542    0.0000 O   0  5  0  0  0  0  0  0  0  0  0  0
  1  2  1  0  0  0  0
  2  3  2  0  0  0  0
  2  7  1  0  0  0  0
  3  4  1  0  0  0  0
  3  8  1  0  0  0  0
  4  5  2  0  0  0  0
  5  6  1  0  0  0  0
  6  7  2  0  0  0  0
  8  9  2  0  0  0  0
  8 10  1  0  0  0  0
M  END
>  <DSSTox_RID>
20280

>  <DSSTox_CID>
280

>  <DSSTox_Generic_SID>
20280

>  <DSSTox_FileID>
289_CPDBAS_v5d

>  <STRUCTURE_Formula>
C6H4ClNO2

>  <STRUCTURE_MolecularWeight>
157.5545

>  <STRUCTURE_ChemicalType>
defined organic

>  <STRUCTURE_TestedForm_DefinedOrganic>
parent

>  <STRUCTURE_Shown>
tested chemical

>  <TestSubstance_ChemicalName>
1-Chloro-2-nitrobenzene

>  <TestSubstance_CASRN>
88-73-3

>  <TestSubstance_Description>
single chemical compound

>  <STRUCTURE_ChemicalName_IUPAC>
1-chloro-2-nitrobenzene

>  <STRUCTURE_SMILES>
ClC1=C(C=CC=C1)[N+](=O)[O-]

>  <STRUCTURE_Parent_SMILES>
ClC1=C(C=CC=C1)[N+](=O)[O-]

>  <STRUCTURE_InChI>
InChI=1/C6H4ClNO2/c7-5-3-1-2-4-6(5)8(9)10/h1-4H

>  <STRUCTURE_InChIKey>
BFCFYVKQTRLZHA-UHFFFAOYAA

>  <StudyType>
Carcinogenicity

>  <Endpoint>
TD50; Tumor Target Sites

>  <Species>
rat; mouse

>  <ActivityOutcome_CPDBAS_Mutagenicity>
active

>  <ActivityScore_CPDBAS_Rat>
0

>  <TD50_Rat_Note>
no positive results

>  <TargetSites_Rat_Male>
no positive results

>  <ActivityOutcome_CPDBAS_Rat>
inactive

>  <TD50_Mouse_mg>
157

>  <TD50_Mouse_mmol>
0.996

>  <ActivityScore_CPDBAS_Mouse>
28

>  <TD50_Mouse_Note>
TD50 is harmonic mean of more than one positive test

>  <TargetSites_Mouse_Male>
liver

>  <TargetSites_Mouse_Female>
liver

>  <ActivityOutcome_CPDBAS_Mouse>
active

>  <ActivityOutcome_CPDBAS_SingleCellCall>
active

>  <ActivityOutcome_CPDBAS_MultiCellCall>
active

>  <ActivityOutcome_CPDBAS_MultiCellCall_Details>
multisex active

>  <ChemicalPage_URL>
http://potency.berkeley.edu/chempages/1-CHLORO-2-NITROBENZENE.html

$$$$



 10 10  0  0  0  0  0  0  0  0999 V2000
    0.0000   -2.3031    0.0000 O   0  0  0  0  0  0  0  0  0  0  0  0
    0.6640   -1.1546    0.0000 N   0  3  0  0  0  0  0  0  0  0  0  0
    1.9921   -1.1546    0.0000 C   0  0  0  0  0  0  0  0  0  0  0  0
    2.6561    0.0000    0.0000 C   0  0  0  0  0  0  0  0  0  0  0  0
    3.9901    0.0000    0.0000 C   0  0  0  0  0  0  0  0  0  0  0  0
    4.6542   -1.1546    0.0000 C   0  0  0  0  0  0  0  0  0  0  0  0
    3.9901   -2.3031    0.0000 C   0  0  0  0  0  0  0  0  0  0  0  0
    2.6561   -2.3031    0.0000 C   0  0  0  0  0  0  0  0  0  0  0  0
    5.9822   -1.1546    0.0000 Cl  0  0  0  0  0  0  0  0  0  0  0  0
    0.0000    0.0000    0.0000 O   0  5  0  0  0  0  0  0  0  0  0  0
  1  2  2  0  0  0  0
  2  3  1  0  0  0  0
  2 10  1  0  0  0  0
  3  4  2  0  0  0  0
  3  8  1  0  0  0  0
  4  5  1  0  0  0  0
  5  6  2  0  0  0  0
  6  7  1  0  0  0  0
  6  9  1  0  0  0  0
  7  8  2  0  0  0  0
M  END
>  <DSSTox_RID>
20281

>  <DSSTox_CID>
281

>  <DSSTox_Generic_SID>
20281

>  <DSSTox_FileID>
290_CPDBAS_v5d

>  <STRUCTURE_Formula>
C6H4ClNO2

>  <STRUCTURE_MolecularWeight>
157.5545

>  <STRUCTURE_ChemicalType>
defined organic

>  <STRUCTURE_TestedForm_DefinedOrganic>
parent

>  <STRUCTURE_Shown>
tested chemical

>  <TestSubstance_ChemicalName>
1-Chloro-4-nitrobenzene

>  <TestSubstance_CASRN>
100-00-5

>  <TestSubstance_Description>
single chemical compound

>  <STRUCTURE_ChemicalName_IUPAC>
1-chloro-4-nitrobenzene

>  <STRUCTURE_SMILES>
O=[N+](C1=CC=C(C=C1)Cl)[O-]

>  <STRUCTURE_Parent_SMILES>
O=[N+](C1=CC=C(C=C1)Cl)[O-]

>  <STRUCTURE_InChI>
InChI=1/C6H4ClNO2/c7-5-1-3-6(4-2-5)8(9)10/h1-4H

>  <STRUCTURE_InChIKey>
CZGCEKJOLUNIFY-UHFFFAOYAO

>  <StudyType>
Carcinogenicity

>  <Endpoint>
TD50; Tumor Target Sites

>  <Species>
rat; mouse

>  <ActivityOutcome_CPDBAS_Mutagenicity>
active

>  <ActivityScore_CPDBAS_Rat>
0

>  <TD50_Rat_Note>
no positive results

>  <TargetSites_Rat_Male>
no positive results

>  <ActivityOutcome_CPDBAS_Rat>
inactive

>  <TD50_Mouse_mg>
473

>  <TD50_Mouse_mmol>
3

>  <ActivityScore_CPDBAS_Mouse>
23

>  <TD50_Mouse_Note>
TD50 is harmonic mean of more than one positive test

>  <TargetSites_Mouse_Male>
liver; vascular system

>  <TargetSites_Mouse_Female>
vascular system

>  <ActivityOutcome_CPDBAS_Mouse>
active

>  <ActivityOutcome_CPDBAS_SingleCellCall>
active

>  <ActivityOutcome_CPDBAS_MultiCellCall>
active

>  <ActivityOutcome_CPDBAS_MultiCellCall_Details>
multisite active; multisex active

>  <ChemicalPage_URL>
http://potency.berkeley.edu/chempages/1-CHLORO-4-NITROBENZENE.html

$$$$



  9  9  0  0  0  0  0  0  0  0999 V2000
    0.0000   -2.6589    0.0000 N   0  0  0  0  0  0  0  0  0  0  0  0
    1.1520   -1.9953    0.0000 C   0  0  0  0  0  0  0  0  0  0  0  0
    1.1520   -0.6636    0.0000 C   0  0  0  0  0  0  0  0  0  0  0  0
    2.3041    0.0000    0.0000 C   0  0  0  0  0  0  0  0  0  0  0  0
    3.4561   -0.6636    0.0000 C   0  0  0  0  0  0  0  0  0  0  0  0
    3.4561   -1.9953    0.0000 C   0  0  0  0  0  0  0  0  0  0  0  0
    2.3041   -2.6589    0.0000 C   0  0  0  0  0  0  0  0  0  0  0  0
    4.6082   -2.6589    0.0000 N   0  0  0  0  0  0  0  0  0  0  0  0
    0.0000    0.0000    0.0000 Cl  0  0  0  0  0  0  0  0  0  0  0  0
  1  2  1  0  0  0  0
  2  3  2  0  0  0  0
  2  7  1  0  0  0  0
  3  4  1  0  0  0  0
  3  9  1  0  0  0  0
  4  5  2  0  0  0  0
  5  6  1  0  0  0  0
  6  7  2  0  0  0  0
  6  8  1  0  0  0  0
M  END
>  <DSSTox_RID>
20282

>  <DSSTox_CID>
282

>  <DSSTox_Generic_SID>
20282

>  <DSSTox_FileID>
291_CPDBAS_v5d

>  <STRUCTURE_Formula>
C6H7ClN2

>  <STRUCTURE_MolecularWeight>
142.5862

>  <STRUCTURE_ChemicalType>
defined organic

>  <STRUCTURE_TestedForm_DefinedOrganic>
parent

>  <STRUCTURE_Shown>
tested chemical

>  <TestSubstance_ChemicalName>
4-Chloro-m-phenylenediamine

>  <TestSubstance_CASRN>
5131-60-2

>  <TestSubstance_Description>
single chemical compound

>  <STRUCTURE_ChemicalName_IUPAC>
4-chlorobenzene-1,3-diamine

>  <STRUCTURE_SMILES>
NC1=C(C=CC(=C1)N)Cl

>  <STRUCTURE_Parent_SMILES>
NC1=C(C=CC(=C1)N)Cl

>  <STRUCTURE_InChI>
InChI=1/C6H7ClN2/c7-5-2-1-4(8)3-6(5)9/h1-3H,8-9H2

>  <STRUCTURE_InChIKey>
ZWUBBMDHSZDNTA-UHFFFAOYAE

>  <StudyType>
Carcinogenicity

>  <Endpoint>
TD50; Tumor Target Sites

>  <Species>
rat; mouse

>  <ActivityOutcome_CPDBAS_Mutagenicity>
active

>  <TD50_Rat_mg>
315

>  <TD50_Rat_mmol>
2.21

>  <ActivityScore_CPDBAS_Rat>
22

>  <TargetSites_Rat_Male>
adrenal gland

>  <TargetSites_Rat_Female>
no positive results

>  <ActivityOutcome_CPDBAS_Rat>
active

>  <TD50_Mouse_mg>
1230

>  <TD50_Mouse_mmol>
8.63

>  <ActivityScore_CPDBAS_Mouse>
18

>  <TargetSites_Mouse_Male>
no positive results

>  <TargetSites_Mouse_Female>
liver

>  <ActivityOutcome_CPDBAS_Mouse>
active

>  <ActivityOutcome_CPDBAS_SingleCellCall>
active

>  <ActivityOutcome_CPDBAS_MultiCellCall>
active

>  <ActivityOutcome_CPDBAS_MultiCellCall_Details>
multisite active; multisex active; multispecies active

>  <NTP_TechnicalReport>
TR 85

>  <ChemicalPage_URL>
http://potency.berkeley.edu/chempages/4-CHLORO-m-PHENYLENEDIAMINE.html

$$$$



  9  9  0  0  0  0  0  0  0  0999 V2000
    0.0000   -2.6589    0.0000 N   0  0  0  0  0  0  0  0  0  0  0  0
    1.1520   -1.9953    0.0000 C   0  0  0  0  0  0  0  0  0  0  0  0
    1.1520   -0.6636    0.0000 C   0  0  0  0  0  0  0  0  0  0  0  0
    2.3041    0.0000    0.0000 C   0  0  0  0  0  0  0  0  0  0  0  0
    3.4561   -0.6636    0.0000 C   0  0  0  0  0  0  0  0  0  0  0  0
    3.4561   -1.9953    0.0000 C   0  0  0  0  0  0  0  0  0  0  0  0
    2.3041   -2.6589    0.0000 C   0  0  0  0  0  0  0  0  0  0  0  0
    4.6082   -2.6589    0.0000 Cl  0  0  0  0  0  0  0  0  0  0  0  0
    0.0000    0.0000    0.0000 N   0  0  0  0  0  0  0  0  0  0  0  0
  1  2  1  0  0  0  0
  2  3  2  0  0  0  0
  2  7  1  0  0  0  0
  3  4  1  0  0  0  0
  3  9  1  0  0  0  0
  4  5  2  0  0  0  0
  5  6  1  0  0  0  0
  6  7  2  0  0  0  0
  6  8  1  0  0  0  0
M  END
>  <DSSTox_RID>
20283

>  <DSSTox_CID>
283

>  <DSSTox_Generic_SID>
20283

>  <DSSTox_FileID>
292_CPDBAS_v5d

>  <STRUCTURE_Formula>
C6H7ClN2

>  <STRUCTURE_MolecularWeight>
142.5862

>  <STRUCTURE_ChemicalType>
defined organic

>  <STRUCTURE_TestedForm_DefinedOrganic>
parent

>  <STRUCTURE_Shown>
tested chemical

>  <TestSubstance_ChemicalName>
4-Chloro-o-phenylenediamine

>  <TestSubstance_CASRN>
95-83-0

>  <TestSubstance_Description>
single chemical compound

>  <STRUCTURE_ChemicalName_IUPAC>
4-chlorobenzene-1,2-diamine

>  <STRUCTURE_SMILES>
NC1=C(C=CC(=C1)Cl)N

>  <STRUCTURE_Parent_SMILES>
NC1=C(C=CC(=C1)Cl)N

>  <STRUCTURE_InChI>
InChI=1/C6H7ClN2/c7-4-1-2-5(8)6(9)3-4/h1-3H,8-9H2

>  <STRUCTURE_InChIKey>
BXIXXXYDDJVHDL-UHFFFAOYAR

>  <StudyType>
Carcinogenicity

>  <Endpoint>
TD50; Tumor Target Sites

>  <Species>
rat; mouse

>  <ActivityOutcome_CPDBAS_Mutagenicity>
active

>  <TD50_Rat_mg>
214

>  <TD50_Rat_mmol>
1.5

>  <ActivityScore_CPDBAS_Rat>
24

>  <TD50_Rat_Note>
TD50 is harmonic mean of more than one positive test

>  <TargetSites_Rat_Male>
stomach; urinary bladder

>  <TargetSites_Rat_Female>
stomach; urinary bladder

>  <ActivityOutcome_CPDBAS_Rat>
active

>  <TD50_Mouse_mg>
1340

>  <TD50_Mouse_mmol>
9.4

>  <ActivityScore_CPDBAS_Mouse>
17

>  <TD50_Mouse_Note>
TD50 is harmonic mean of more than one positive test

>  <TargetSites_Mouse_Male>
liver

>  <TargetSites_Mouse_Female>
liver

>  <ActivityOutcome_CPDBAS_Mouse>
active

>  <ActivityOutcome_CPDBAS_SingleCellCall>
active

>  <ActivityOutcome_CPDBAS_MultiCellCall>
active

>  <ActivityOutcome_CPDBAS_MultiCellCall_Details>
multisite active; multisex active; multispecies active

>  <NTP_TechnicalReport>
TR 63

>  <ChemicalPage_URL>
http://potency.berkeley.edu/chempages/4-CHLORO-o-PHENYLENEDIAMINE.html

$$$$



  9  9  0  0  0  0  0  0  0  0999 V2000
    0.0000   -2.6589    0.0000 Cl  0  0  0  0  0  0  0  0  0  0  0  0
    1.1520   -1.9953    0.0000 C   0  0  0  0  0  0  0  0  0  0  0  0
    1.1520   -0.6636    0.0000 C   0  0  0  0  0  0  0  0  0  0  0  0
    2.3041    0.0000    0.0000 C   0  0  0  0  0  0  0  0  0  0  0  0
    3.4561   -0.6636    0.0000 C   0  0  0  0  0  0  0  0  0  0  0  0
    3.4561   -1.9953    0.0000 C   0  0  0  0  0  0  0  0  0  0  0  0
    2.3041   -2.6589    0.0000 C   0  0  0  0  0  0  0  0  0  0  0  0
    4.6082   -2.6589    0.0000 N   0  0  0  0  0  0  0  0  0  0  0  0
    0.0000    0.0000    0.0000 C   0  0  0  0  0  0  0  0  0  0  0  0
  1  2  1  0  0  0  0
  2  3  2  0  0  0  0
  2  7  1  0  0  0  0
  3  4  1  0  0  0  0
  3  9  1  0  0  0  0
  4  5  2  0  0  0  0
  5  6  1  0  0  0  0
  6  7  2  0  0  0  0
  6  8  1  0  0  0  0
M  END
>  <DSSTox_RID>
20286

>  <DSSTox_CID>
286

>  <DSSTox_Generic_SID>
20286

>  <DSSTox_FileID>
295_CPDBAS_v5d

>  <STRUCTURE_Formula>
C7H8ClN

>  <STRUCTURE_MolecularWeight>
141.5981

>  <STRUCTURE_ChemicalType>
defined organic

>  <STRUCTURE_TestedForm_DefinedOrganic>
parent

>  <STRUCTURE_Shown>
tested chemical

>  <TestSubstance_ChemicalName>
3-Chloro-p-toluidine

>  <TestSubstance_CASRN>
95-74-9

>  <TestSubstance_Description>
single chemical compound

>  <STRUCTURE_ChemicalName_IUPAC>
3-chloro-4-methylaniline

>  <STRUCTURE_SMILES>
ClC1=C(C=CC(=C1)N)C

>  <STRUCTURE_Parent_SMILES>
ClC1=C(C=CC(=C1)N)C

>  <STRUCTURE_InChI>
InChI=1/C7H8ClN/c1-5-2-3-6(9)4-7(5)8/h2-4H,9H2,1H3

>  <STRUCTURE_InChIKey>
RQKFYFNZSHWXAW-UHFFFAOYAO

>  <StudyType>
Carcinogenicity

>  <Endpoint>
TD50; Tumor Target Sites

>  <Species>
rat; mouse

>  <ActivityOutcome_CPDBAS_Mutagenicity>
inactive

>  <ActivityScore_CPDBAS_Rat>
0

>  <TD50_Rat_Note>
no positive results

>  <TargetSites_Rat_Male>
no positive results

>  <TargetSites_Rat_Female>
no positive results

>  <ActivityOutcome_CPDBAS_Rat>
inactive

>  <ActivityScore_CPDBAS_Mouse>
0

>  <TD50_Mouse_Note>
no positive results

>  <TargetSites_Mouse_Male>
no positive results

>  <TargetSites_Mouse_Female>
no positive results

>  <ActivityOutcome_CPDBAS_Mouse>
inactive

>  <ActivityOutcome_CPDBAS_SingleCellCall>
inactive

>  <ActivityOutcome_CPDBAS_MultiCellCall>
inactive

>  <ActivityOutcome_CPDBAS_MultiCellCall_Details>
multisex inactive; multispecies inactive

>  <NTP_TechnicalReport>
TR 145

>  <ChemicalPage_URL>
http://potency.berkeley.edu/chempages/3-CHLORO-p-TOLUIDINE.html

$$$$



  9  9  0  0  0  0  0  0  0  0999 V2000
    4.6082   -2.6589    0.0000 N   0  0  0  0  0  0  0  0  0  0  0  0
    3.4561   -1.9953    0.0000 C   0  0  0  0  0  0  0  0  0  0  0  0
    2.3041   -2.6589    0.0000 C   0  0  0  0  0  0  0  0  0  0  0  0
    1.1520   -1.9953    0.0000 C   0  0  0  0  0  0  0  0  0  0  0  0
    1.1520   -0.6636    0.0000 C   0  0  0  0  0  0  0  0  0  0  0  0
    2.3041    0.0000    0.0000 C   0  0  0  0  0  0  0  0  0  0  0  0
    3.4561   -0.6636    0.0000 C   0  0  0  0  0  0  0  0  0  0  0  0
    4.6082    0.0000    0.0000 C   0  0  0  0  0  0  0  0  0  0  0  0
    0.0000   -2.6589    0.0000 Cl  0  0  0  0  0  0  0  0  0  0  0  0
  1  2  1  0  0  0  0
  2  3  2  0  0  0  0
  2  7  1  0  0  0  0
  3  4  1  0  0  0  0
  4  5  2  0  0  0  0
  4  9  1  0  0  0  0
  5  6  1  0  0  0  0
  6  7  2  0  0  0  0
  7  8  1  0  0  0  0
M  END
>  <DSSTox_RID>
20287

>  <DSSTox_CID>
287

>  <DSSTox_Generic_SID>
20287

>  <DSSTox_FileID>
296_CPDBAS_v5d

>  <STRUCTURE_Formula>
C7H8ClN

>  <STRUCTURE_MolecularWeight>
141.5981

>  <STRUCTURE_ChemicalType>
defined organic

>  <STRUCTURE_TestedForm_DefinedOrganic>
parent

>  <STRUCTURE_Shown>
tested chemical

>  <TestSubstance_ChemicalName>
5-Chloro-o-toluidine

>  <TestSubstance_CASRN>
95-79-4

>  <TestSubstance_Description>
single chemical compound

>  <STRUCTURE_ChemicalName_IUPAC>
5-chloro-2-methylaniline

>  <STRUCTURE_SMILES>
NC1=CC(=CC=C1C)Cl

>  <STRUCTURE_Parent_SMILES>
NC1=CC(=CC=C1C)Cl

>  <STRUCTURE_InChI>
InChI=1/C7H8ClN/c1-5-2-3-6(8)4-7(5)9/h2-4H,9H2,1H3

>  <STRUCTURE_InChIKey>
WRZOMWDJOLIVQP-UHFFFAOYAU

>  <StudyType>
Carcinogenicity

>  <Endpoint>
TD50; Tumor Target Sites

>  <Species>
rat; mouse

>  <ActivityOutcome_CPDBAS_Mutagenicity>
inactive

>  <ActivityScore_CPDBAS_Rat>
0

>  <TD50_Rat_Note>
no positive results

>  <TargetSites_Rat_Male>
no positive results

>  <TargetSites_Rat_Female>
no positive results

>  <ActivityOutcome_CPDBAS_Rat>
inactive

>  <TD50_Mouse_mg>
195

>  <TD50_Mouse_mmol>
1.38

>  <ActivityScore_CPDBAS_Mouse>
27

>  <TD50_Mouse_Note>
TD50 is harmonic mean of more than one positive test

>  <TargetSites_Mouse_Male>
liver; vascular system

>  <TargetSites_Mouse_Female>
liver; vascular system

>  <ActivityOutcome_CPDBAS_Mouse>
active

>  <ActivityOutcome_CPDBAS_SingleCellCall>
active

>  <ActivityOutcome_CPDBAS_MultiCellCall>
active

>  <ActivityOutcome_CPDBAS_MultiCellCall_Details>
multisite active; multisex active

>  <NTP_TechnicalReport>
TR 187

>  <ChemicalPage_URL>
http://potency.berkeley.edu/chempages/5-CHLORO-o-TOLUIDINE.html

$$$$



  6  5  0  0  0  0  0  0  0  0999 V2000
    1.1503   -1.1537    0.0000 C   0  0  0  0  0  0  0  0  0  0  0  0
    2.3040   -0.4870    0.0000 C   0  0  0  0  0  0  0  0  0  0  0  0
    3.4542   -1.1537    0.0000 Cl  0  0  0  0  0  0  0  0  0  0  0  0
    1.8169   -2.3040    0.0000 F   0  0  0  0  0  0  0  0  0  0  0  0
    0.0000   -1.8169    0.0000 F   0  0  0  0  0  0  0  0  0  0  0  0
    0.4870    0.0000    0.0000 F   0  0  0  0  0  0  0  0  0  0  0  0
  1  2  1  0  0  0  0
  1  4  1  0  0  0  0
  1  5  1  0  0  0  0
  1  6  1  0  0  0  0
  2  3  1  0  0  0  0
M  END
>  <DSSTox_RID>
20289

>  <DSSTox_CID>
289

>  <DSSTox_Generic_SID>
20289

>  <DSSTox_FileID>
298_CPDBAS_v5d

>  <STRUCTURE_Formula>
C2H2ClF3

>  <STRUCTURE_MolecularWeight>
118.486

>  <STRUCTURE_ChemicalType>
defined organic

>  <STRUCTURE_TestedForm_DefinedOrganic>
parent

>  <STRUCTURE_Shown>
tested chemical

>  <TestSubstance_ChemicalName>
2-Chloro-1,1,1-trifluoroethane

>  <TestSubstance_CASRN>
75-88-7

>  <TestSubstance_Description>
single chemical compound

>  <STRUCTURE_ChemicalName_IUPAC>
2-chloro-1,1,1-trifluoroethane

>  <STRUCTURE_SMILES>
C(CCl)(F)(F)F

>  <STRUCTURE_Parent_SMILES>
C(CCl)(F)(F)F

>  <STRUCTURE_InChI>
InChI=1/C2H2ClF3/c3-1-2(4,5)6/h1H2

>  <STRUCTURE_InChIKey>
CYXIKYKBLDZZNW-UHFFFAOYAS

>  <StudyType>
Carcinogenicity

>  <Endpoint>
TD50; Tumor Target Sites

>  <Species>
rat

>  <ActivityOutcome_CPDBAS_Mutagenicity>
inactive

>  <TD50_Rat_mg>
87.3

>  <TD50_Rat_mmol>
0.737

>  <ActivityScore_CPDBAS_Rat>
27

>  <TD50_Rat_Note>
TD50 is harmonic mean of more than one positive test

>  <TargetSites_Rat_Male>
testes

>  <TargetSites_Rat_Female>
uterus

>  <ActivityOutcome_CPDBAS_Rat>
active

>  <ActivityOutcome_CPDBAS_SingleCellCall>
active

>  <ActivityOutcome_CPDBAS_MultiCellCall>
active

>  <ActivityOutcome_CPDBAS_MultiCellCall_Details>
multisite active; multisex active

>  <ChemicalPage_URL>
http://potency.berkeley.edu/chempages/2-CHLORO-1,1,1-TRIFLUOROETHANE.html

$$$$



 21 22  0  0  0  0  0  0  0  0999 V2000
    5.7698    0.0000    0.0000 Cl  0  0  0  0  0  0  0  0  0  0  0  0
    5.7698   -1.3315    0.0000 C   0  0  0  0  0  0  0  0  0  0  0  0
    6.9111   -2.0036    0.0000 C   0  0  0  0  0  0  0  0  0  0  0  0
    6.9111   -3.3351    0.0000 C   0  0  0  0  0  0  0  0  0  0  0  0
    5.7698   -3.9945    0.0000 N   0  0  0  0  0  0  0  0  0  0  0  0
    4.6158   -3.3351    0.0000 C   0  0  0  0  0  0  0  0  0  0  0  0
    4.6158   -2.0036    0.0000 N   0  0  0  0  0  0  0  0  0  0  0  0
    3.4619   -3.9945    0.0000 S   0  0  0  0  0  0  0  0  0  0  0  0
    2.3079   -3.3351    0.0000 C   0  0  0  0  0  0  0  0  0  0  0  0
    1.1540   -3.9945    0.0000 C   0  0  0  0  0  0  0  0  0  0  0  0
    1.1540   -5.3260    0.0000 O   0  0  0  0  0  0  0  0  0  0  0  0
    0.0000   -3.3351    0.0000 O   0  0  0  0  0  0  0  0  0  0  0  0
    8.0650   -3.9945    0.0000 N   0  0  0  0  0  0  0  0  0  0  0  0
    9.2190   -3.3351    0.0000 C   0  0  0  0  0  0  0  0  0  0  0  0
    9.2190   -2.0036    0.0000 C   0  0  0  0  0  0  0  0  0  0  0  0
   10.3730   -1.3315    0.0000 C   0  0  0  0  0  0  0  0  0  0  0  0
   11.5269   -2.0036    0.0000 C   0  0  0  0  0  0  0  0  0  0  0  0
   11.5269   -3.3351    0.0000 C   0  0  0  0  0  0  0  0  0  0  0  0
   10.3730   -3.9945    0.0000 C   0  0  0  0  0  0  0  0  0  0  0  0
   10.3730   -5.3260    0.0000 C   0  0  0  0  0  0  0  0  0  0  0  0
   12.6809   -3.9945    0.0000 C   0  0  0  0  0  0  0  0  0  0  0  0
  1  2  1  0  0  0  0
  2  3  2  0  0  0  0
  2  7  1  0  0  0  0
  3  4  1  0  0  0  0
  4  5  2  0  0  0  0
  4 13  1  0  0  0  0
  5  6  1  0  0  0  0
  6  7  2  0  0  0  0
  6  8  1  0  0  0  0
  8  9  1  0  0  0  0
  9 10  1  0  0  0  0
 10 11  2  0  0  0  0
 10 12  1  0  0  0  0
 13 14  1  0  0  0  0
 14 15  2  0  0  0  0
 14 19  1  0  0  0  0
 15 16  1  0  0  0  0
 16 17  2  0  0  0  0
 17 18  1  0  0  0  0
 18 19  2  0  0  0  0
 18 21  1  0  0  0  0
 19 20  1  0  0  0  0
M  END
>  <DSSTox_RID>
20290

>  <DSSTox_CID>
290

>  <DSSTox_Generic_SID>
20290

>  <DSSTox_FileID>
299_CPDBAS_v5d

>  <STRUCTURE_Formula>
C14H14ClN3O2S

>  <STRUCTURE_MolecularWeight>
323.7979

>  <STRUCTURE_ChemicalType>
defined organic

>  <STRUCTURE_TestedForm_DefinedOrganic>
parent

>  <STRUCTURE_Shown>
tested chemical

>  <TestSubstance_ChemicalName>
[4-Chloro-6-(2,3-xylidino)-2-pyrimidinylthio]acetic acid

>  <TestSubstance_CASRN>
50892-23-4

>  <TestSubstance_Description>
single chemical compound

>  <STRUCTURE_ChemicalName_IUPAC>
({4-chloro-6-[(2,3-dimethylphenyl)amino]pyrimidin-2-yl}thio)acetic acid

>  <STRUCTURE_SMILES>
ClC1=CC(=NC(=N1)SCC(=O)O)NC2=CC=CC(=C2C)C

>  <STRUCTURE_Parent_SMILES>
ClC1=CC(=NC(=N1)SCC(=O)O)NC2=CC=CC(=C2C)C

>  <STRUCTURE_InChI>
InChI=1/C14H14ClN3O2S/c1-8-4-3-5-10(9(8)2)16-12-6-11(15)17-14(18-12)21-7-13(19)20/h3-6H,7H2,1-2H3,(H,19,20)(H,16,17,18)/f/h16,19H

>  <STRUCTURE_InChIKey>
SZRPDCCEHVWOJX-YSFRZULJCA

>  <StudyType>
Carcinogenicity

>  <Endpoint>
TD50; Tumor Target Sites

>  <Species>
rat; mouse; hamster

>  <TD50_Rat_mg>
4.36

>  <TD50_Rat_mmol>
0.0135

>  <ActivityScore_CPDBAS_Rat>
45

>  <TD50_Rat_Note>
TD50 is harmonic mean of more than one positive test; harmonic mean of TD50 includes a value for upper 99% confidence limit from study with 100% tumor incidence but no lifetable; greater than ten-fold variation among TD50 values for positive results

>  <TargetSites_Rat_Male>
liver

>  <ActivityOutcome_CPDBAS_Rat>
active

>  <TD50_Mouse_mg>
10.8

>  <TD50_Mouse_mmol>
0.0334

>  <ActivityScore_CPDBAS_Mouse>
45

>  <TD50_Mouse_Note>
TD50 value is overestimated as upper 99% confidence limit from study with 100% tumor incidence but no lifetable; harmonic mean of TD50 includes a value for upper 99% confidence limit from study with 100% tumor incidence but no lifetable

>  <TargetSites_Mouse_Male>
liver

>  <ActivityOutcome_CPDBAS_Mouse>
active

>  <ActivityScore_CPDBAS_Hamster>
0

>  <TD50_Hamster_Note>
no positive results

>  <TargetSites_Hamster_Male>
no positive results

>  <ActivityOutcome_CPDBAS_Hamster>
inactive

>  <ActivityOutcome_CPDBAS_SingleCellCall>
active

>  <ActivityOutcome_CPDBAS_MultiCellCall>
active

>  <ActivityOutcome_CPDBAS_MultiCellCall_Details>
multispecies active

>  <Note_CPDBAS>
TD50_Rat_Note added v5a; TD50_Mouse_Note added v5a

>  <ChemicalPage_URL>
http://potency.berkeley.edu/chempages/[4-CHLORO-6-(2,3-XYLIDINO)-2-PYRIMIDINYLTHIO]ACETI.html

$$$$



 24 25  0  0  0  0  0  0  0  0999 V2000
   10.3662   -3.3262    0.0000 C   0  0  0  0  0  0  0  0  0  0  0  0
   11.5126   -3.9882    0.0000 N   0  0  0  0  0  0  0  0  0  0  0  0
    9.2036   -3.9882    0.0000 N   0  0  0  0  0  0  0  0  0  0  0  0
   10.3662   -2.0022    0.0000 C   0  0  0  0  0  0  0  0  0  0  0  0
   12.6751   -3.3262    0.0000 C   0  0  0  0  0  0  0  0  0  0  0  0
    8.0733   -3.3262    0.0000 C   0  0  0  0  0  0  0  0  0  0  0  0
    9.2036   -1.3240    0.0000 C   0  0  0  0  0  0  0  0  0  0  0  0
   13.8215   -3.9882    0.0000 C   0  0  0  0  0  0  0  0  0  0  0  0
   12.6751   -2.0022    0.0000 C   0  0  0  0  0  0  0  0  0  0  0  0
    8.0733   -2.0022    0.0000 N   0  0  0  0  0  0  0  0  0  0  0  0
    6.9269   -3.9882    0.0000 S   0  0  0  0  0  0  0  0  0  0  0  0
    9.2036    0.0000    0.0000 Cl  0  0  0  0  0  0  0  0  0  0  0  0
   15.0003   -3.3262    0.0000 C   0  0  0  0  0  0  0  0  0  0  0  0
   13.8215   -5.3123    0.0000 C   0  0  0  0  0  0  0  0  0  0  0  0
   13.8215   -1.3240    0.0000 C   0  0  0  0  0  0  0  0  0  0  0  0
    5.7482   -3.3262    0.0000 C   0  0  0  0  0  0  0  0  0  0  0  0
   15.0003   -2.0022    0.0000 C   0  0  0  0  0  0  0  0  0  0  0  0
   16.1467   -3.9882    0.0000 C   0  0  0  0  0  0  0  0  0  0  0  0
    4.6018   -3.9882    0.0000 C   0  0  0  0  0  0  0  0  0  0  0  0
    3.4392   -3.3262    0.0000 N   0  0  0  0  0  0  0  0  0  0  0  0
    4.6018   -5.3123    0.0000 O   0  0  0  0  0  0  0  0  0  0  0  0
    2.2928   -4.0044    0.0000 C   0  0  0  0  0  0  0  0  0  0  0  0
    1.1464   -3.3424    0.0000 C   0  0  0  0  0  0  0  0  0  0  0  0
    0.0000   -4.0044    0.0000 O   0  0  0  0  0  0  0  0  0  0  0  0
  1  2  1  0  0  0  0
  1  3  1  0  0  0  0
  1  4  2  0  0  0  0
  2  5  1  0  0  0  0
  3  6  2  0  0  0  0
  4  7  1  0  0  0  0
  5  8  1  0  0  0  0
  5  9  2  0  0  0  0
  6 10  1  0  0  0  0
  6 11  1  0  0  0  0
  7 12  1  0  0  0  0
  7 10  2  0  0  0  0
  8 13  2  0  0  0  0
  8 14  1  0  0  0  0
  9 15  1  0  0  0  0
 11 16  1  0  0  0  0
 13 17  1  0  0  0  0
 13 18  1  0  0  0  0
 15 17  2  0  0  0  0
 16 19  1  0  0  0  0
 19 20  1  0  0  0  0
 19 21  2  0  0  0  0
 20 22  1  0  0  0  0
 22 23  1  0  0  0  0
 23 24  1  0  0  0  0
M  END
>  <DSSTox_RID>
20291

>  <DSSTox_CID>
291

>  <DSSTox_Generic_SID>
20291

>  <DSSTox_FileID>
300_CPDBAS_v5d

>  <STRUCTURE_Formula>
C16H19ClN4O2S

>  <STRUCTURE_MolecularWeight>
366.8657

>  <STRUCTURE_ChemicalType>
defined organic

>  <STRUCTURE_TestedForm_DefinedOrganic>
parent

>  <STRUCTURE_Shown>
tested chemical

>  <TestSubstance_ChemicalName>
4-Chloro-6-(2,3-xylidino)-2-pyrimidinylthio(N-beta-hydroxyethyl)acetamide

>  <TestSubstance_CASRN>
65089-17-0

>  <TestSubstance_Description>
single chemical compound

>  <STRUCTURE_ChemicalName_IUPAC>
2-({4-chloro-6-[(2,3-dimethylphenyl)amino]pyrimidin-2-yl}thio)-N-(2-hydroxyethyl)acetamide

>  <STRUCTURE_SMILES>
ClC1=NC(SCC(NCCO)=O)=NC(NC2=CC=CC(C)=C2C)=C1

>  <STRUCTURE_Parent_SMILES>
ClC1=NC(SCC(NCCO)=O)=NC(NC2=CC=CC(C)=C2C)=C1

>  <STRUCTURE_InChI>
InChI=1/C16H19ClN4O2S/c1-10-4-3-5-12(11(10)2)19-14-8-13(17)20-16(21-14)24-9-15(23)18-6-7-22/h3-5,8,22H,6-7,9H2,1-2H3,(H,18,23)(H,19,20,21)/f/h18-19H

>  <STRUCTURE_InChIKey>
RZCKTPORLKUFGY-VEWCPZSHCA

>  <StudyType>
Carcinogenicity

>  <Endpoint>
TD50; Tumor Target Sites

>  <Species>
rat; mouse

>  <TD50_Rat_mg>
6.49

>  <TD50_Rat_mmol>
0.0177

>  <ActivityScore_CPDBAS_Rat>
44

>  <TargetSites_Rat_Male>
liver

>  <ActivityOutcome_CPDBAS_Rat>
active

>  <TD50_Mouse_mg>
44.6

>  <TD50_Mouse_mmol>
0.122

>  <ActivityScore_CPDBAS_Mouse>
39

>  <TargetSites_Mouse_Female>
liver

>  <ActivityOutcome_CPDBAS_Mouse>
active

>  <ActivityOutcome_CPDBAS_SingleCellCall>
active

>  <ActivityOutcome_CPDBAS_MultiCellCall>
active

>  <ActivityOutcome_CPDBAS_MultiCellCall_Details>
multisex active; multispecies active

>  <ChemicalPage_URL>
http://potency.berkeley.edu/chempages/4-CHLORO-6-(2,3-XYLIDINO)-2-PYRIMIDINYLTHIO(N-beta.html

$$$$



  4  3  0  0  0  0  0  0  0  0999 V2000
    0.0000    0.0000    0.0000 O   0  0  0  0  0  0  0  0  0  0  0  0
    1.1513   -0.6638    0.0000 C   0  0  0  0  0  0  0  0  0  0  0  0
    2.3061    0.0000    0.0000 C   0  0  0  0  0  0  0  0  0  0  0  0
    3.4575   -0.6638    0.0000 Cl  0  0  0  0  0  0  0  0  0  0  0  0
  1  2  2  0  0  0  0
  2  3  1  0  0  0  0
  3  4  1  0  0  0  0
M  END
>  <DSSTox_RID>
20292

>  <DSSTox_CID>
292

>  <DSSTox_Generic_SID>
20292

>  <DSSTox_FileID>
301_CPDBAS_v5d

>  <STRUCTURE_Formula>
C2H3ClO

>  <STRUCTURE_MolecularWeight>
78.4976

>  <STRUCTURE_ChemicalType>
defined organic

>  <STRUCTURE_TestedForm_DefinedOrganic>
parent

>  <STRUCTURE_Shown>
tested chemical

>  <TestSubstance_ChemicalName>
Chloroacetaldehyde

>  <TestSubstance_CASRN>
107-20-0

>  <TestSubstance_Description>
single chemical compound

>  <STRUCTURE_ChemicalName_IUPAC>
chloroacetaldehyde

>  <STRUCTURE_SMILES>
O=CCCl

>  <STRUCTURE_Parent_SMILES>
O=CCCl

>  <STRUCTURE_InChI>
InChI=1/C2H3ClO/c3-1-2-4/h2H,1H2

>  <STRUCTURE_InChIKey>
QSKPIOLLBIHNAC-UHFFFAOYAP

>  <StudyType>
Carcinogenicity

>  <Endpoint>
TD50; Tumor Target Sites

>  <Species>
mouse

>  <ActivityOutcome_CPDBAS_Mutagenicity>
active

>  <TD50_Mouse_mg>
36.1

>  <TD50_Mouse_mmol>
0.46

>  <ActivityScore_CPDBAS_Mouse>
32

>  <TargetSites_Mouse_Male>
liver

>  <TargetSites_Mouse_Female>
no positive results

>  <ActivityOutcome_CPDBAS_Mouse>
active

>  <ActivityOutcome_CPDBAS_SingleCellCall>
active

>  <ChemicalPage_URL>
http://potency.berkeley.edu/chempages/CHLOROACETALDEHYDE.html

$$$$



 10 10  0  0  0  0  0  0  0  0999 V2000
    4.6545   -3.4536    0.0000 O   0  0  0  0  0  0  0  0  0  0  0  0
    3.9889   -2.3040    0.0000 C   0  0  0  0  0  0  0  0  0  0  0  0
    2.6577   -2.3040    0.0000 C   0  0  0  0  0  0  0  0  0  0  0  0
    1.9968   -3.4536    0.0000 C   0  0  0  0  0  0  0  0  0  0  0  0
    0.6656   -3.4536    0.0000 C   0  0  0  0  0  0  0  0  0  0  0  0
    0.0000   -2.3040    0.0000 C   0  0  0  0  0  0  0  0  0  0  0  0
    0.6656   -1.1497    0.0000 C   0  0  0  0  0  0  0  0  0  0  0  0
    1.9968   -1.1497    0.0000 C   0  0  0  0  0  0  0  0  0  0  0  0
    4.6545   -1.1497    0.0000 C   0  0  0  0  0  0  0  0  0  0  0  0
    3.9889    0.0000    0.0000 Cl  0  0  0  0  0  0  0  0  0  0  0  0
  1  2  2  0  0  0  0
  2  3  1  0  0  0  0
  2  9  1  0  0  0  0
  3  4  2  0  0  0  0
  3  8  1  0  0  0  0
  4  5  1  0  0  0  0
  5  6  2  0  0  0  0
  6  7  1  0  0  0  0
  7  8  2  0  0  0  0
  9 10  1  0  0  0  0
M  END
>  <DSSTox_RID>
20293

>  <DSSTox_CID>
293

>  <DSSTox_Generic_SID>
20293

>  <DSSTox_FileID>
302_CPDBAS_v5d

>  <STRUCTURE_Formula>
C8H7ClO

>  <STRUCTURE_MolecularWeight>
154.5936

>  <STRUCTURE_ChemicalType>
defined organic

>  <STRUCTURE_TestedForm_DefinedOrganic>
parent

>  <STRUCTURE_Shown>
tested chemical

>  <TestSubstance_ChemicalName>
2-Chloroacetophenone

>  <TestSubstance_CASRN>
532-27-4

>  <TestSubstance_Description>
single chemical compound

>  <STRUCTURE_ChemicalName_IUPAC>
2-chloro-1-phenylethanone

>  <STRUCTURE_SMILES>
O=C(C1=CC=CC=C1)CCl

>  <STRUCTURE_Parent_SMILES>
O=C(C1=CC=CC=C1)CCl

>  <STRUCTURE_InChI>
InChI=1/C8H7ClO/c9-6-8(10)7-4-2-1-3-5-7/h1-5H,6H2

>  <STRUCTURE_InChIKey>
IMACFCSSMIZSPP-UHFFFAOYAN

>  <StudyType>
Carcinogenicity

>  <Endpoint>
TD50; Tumor Target Sites

>  <Species>
rat; mouse

>  <ActivityOutcome_CPDBAS_Mutagenicity>
inactive

>  <ActivityScore_CPDBAS_Rat>
0

>  <TD50_Rat_Note>
no positive results

>  <TargetSites_Rat_Male>
no positive results

>  <TargetSites_Rat_Female>
no positive results

>  <ActivityOutcome_CPDBAS_Rat>
inactive

>  <ActivityScore_CPDBAS_Mouse>
0

>  <TD50_Mouse_Note>
no positive results

>  <TargetSites_Mouse_Male>
no positive results

>  <TargetSites_Mouse_Female>
no positive results

>  <ActivityOutcome_CPDBAS_Mouse>
inactive

>  <ActivityOutcome_CPDBAS_SingleCellCall>
inactive

>  <ActivityOutcome_CPDBAS_MultiCellCall>
inactive

>  <ActivityOutcome_CPDBAS_MultiCellCall_Details>
multisex inactive; multispecies inactive

>  <NTP_TechnicalReport>
TR 379

>  <ChemicalPage_URL>
http://potency.berkeley.edu/chempages/2-CHLOROACETOPHENONE.html

$$$$



 14 14  0  0  0  0  0  0  0  0999 V2000
    0.0000   -3.4581    0.0000 Cl  0  0  0  0  0  0  0  0  0  0  0  0
    1.3329   -3.4581    0.0000 C   0  0  0  0  0  0  0  0  0  0  0  0
    1.9947   -2.3023    0.0000 C   0  0  0  0  0  0  0  0  0  0  0  0
    1.3329   -1.1558    0.0000 O   0  0  0  0  0  0  0  0  0  0  0  0
    3.3276   -2.3023    0.0000 C   0  0  0  0  0  0  0  0  0  0  0  0
    3.9987   -1.1558    0.0000 C   0  0  0  0  0  0  0  0  0  0  0  0
    5.3223   -1.1558    0.0000 C   0  0  0  0  0  0  0  0  0  0  0  0
    5.9934   -2.3023    0.0000 C   0  0  0  0  0  0  0  0  0  0  0  0
    7.3263   -2.3023    0.0000 N   0  0  0  0  0  0  0  0  0  0  0  0
    7.9881   -1.1558    0.0000 C   0  0  0  0  0  0  0  0  0  0  0  0
    7.3263    0.0000    0.0000 O   0  0  0  0  0  0  0  0  0  0  0  0
    9.3210   -1.1558    0.0000 C   0  0  0  0  0  0  0  0  0  0  0  0
    3.9987   -3.4581    0.0000 C   0  0  0  0  0  0  0  0  0  0  0  0
    5.3223   -3.4581    0.0000 C   0  0  0  0  0  0  0  0  0  0  0  0
  1  2  1  0  0  0  0
  2  3  1  0  0  0  0
  3  4  2  0  0  0  0
  3  5  1  0  0  0  0
  5  6  2  0  0  0  0
  5 13  1  0  0  0  0
  6  7  1  0  0  0  0
  7  8  2  0  0  0  0
  8  9  1  0  0  0  0
  8 14  1  0  0  0  0
  9 10  1  0  0  0  0
 10 11  2  0  0  0  0
 10 12  1  0  0  0  0
 13 14  2  0  0  0  0
M  END
>  <DSSTox_RID>
20294

>  <DSSTox_CID>
294

>  <DSSTox_Generic_SID>
20294

>  <DSSTox_FileID>
303_CPDBAS_v5d

>  <STRUCTURE_Formula>
C10H10ClNO2

>  <STRUCTURE_MolecularWeight>
211.6449

>  <STRUCTURE_ChemicalType>
defined organic

>  <STRUCTURE_TestedForm_DefinedOrganic>
parent

>  <STRUCTURE_Shown>
tested chemical

>  <TestSubstance_ChemicalName>
4'-(Chloroacetyl)-acetanilide

>  <TestSubstance_CASRN>
140-49-8

>  <TestSubstance_Description>
single chemical compound

>  <STRUCTURE_ChemicalName_IUPAC>
N-[4-(chloroacetyl)phenyl]acetamide

>  <STRUCTURE_SMILES>
ClCC(=O)C1=CC=C(NC(=O)C)C=C1

>  <STRUCTURE_Parent_SMILES>
ClCC(=O)C1=CC=C(NC(=O)C)C=C1

>  <STRUCTURE_InChI>
InChI=1/C10H10ClNO2/c1-7(13)12-9-4-2-8(3-5-9)10(14)6-11/h2-5H,6H2,1H3,(H,12,13)/f/h12H

>  <STRUCTURE_InChIKey>
VMMDOCYDNRLESP-XWKXFZRBCI

>  <StudyType>
Carcinogenicity

>  <Endpoint>
TD50; Tumor Target Sites

>  <Species>
rat; mouse

>  <ActivityOutcome_CPDBAS_Mutagenicity>
active

>  <ActivityScore_CPDBAS_Rat>
0

>  <TD50_Rat_Note>
no positive results

>  <TargetSites_Rat_Male>
no positive results

>  <TargetSites_Rat_Female>
no positive results

>  <ActivityOutcome_CPDBAS_Rat>
inactive

>  <ActivityScore_CPDBAS_Mouse>
0

>  <TD50_Mouse_Note>
no positive results

>  <TargetSites_Mouse_Male>
no positive results

>  <TargetSites_Mouse_Female>
no positive results

>  <ActivityOutcome_CPDBAS_Mouse>
inactive

>  <ActivityOutcome_CPDBAS_SingleCellCall>
inactive

>  <ActivityOutcome_CPDBAS_MultiCellCall>
inactive

>  <ActivityOutcome_CPDBAS_MultiCellCall_Details>
multisex inactive; multispecies inactive

>  <NTP_TechnicalReport>
TR 177

>  <ChemicalPage_URL>
http://potency.berkeley.edu/chempages/4'-(CHLOROACETYL)-ACETANILIDE.html

$$$$



  8  8  0  0  0  0  0  0  0  0999 V2000
    0.0000   -1.1545    0.0000 N   0  0  0  0  0  0  0  0  0  0  0  0
    1.3300   -1.1545    0.0000 C   0  0  0  0  0  0  0  0  0  0  0  0
    1.9950    0.0000    0.0000 C   0  0  0  0  0  0  0  0  0  0  0  0
    3.3250    0.0000    0.0000 C   0  0  0  0  0  0  0  0  0  0  0  0
    3.9900   -1.1545    0.0000 C   0  0  0  0  0  0  0  0  0  0  0  0
    3.3250   -2.3036    0.0000 C   0  0  0  0  0  0  0  0  0  0  0  0
    1.9950   -2.3036    0.0000 C   0  0  0  0  0  0  0  0  0  0  0  0
    5.3201   -1.1545    0.0000 Cl  0  0  0  0  0  0  0  0  0  0  0  0
  1  2  1  0  0  0  0
  2  3  2  0  0  0  0
  2  7  1  0  0  0  0
  3  4  1  0  0  0  0
  4  5  2  0  0  0  0
  5  6  1  0  0  0  0
  5  8  1  0  0  0  0
  6  7  2  0  0  0  0
M  END
>  <DSSTox_RID>
20295

>  <DSSTox_CID>
295

>  <DSSTox_Generic_SID>
20295

>  <DSSTox_FileID>
304_CPDBAS_v5d

>  <STRUCTURE_Formula>
C6H6ClN

>  <STRUCTURE_MolecularWeight>
127.5715

>  <STRUCTURE_ChemicalType>
defined organic

>  <STRUCTURE_TestedForm_DefinedOrganic>
parent

>  <STRUCTURE_Shown>
tested chemical

>  <TestSubstance_ChemicalName>
p-Chloroaniline

>  <TestSubstance_CASRN>
106-47-8

>  <TestSubstance_Description>
single chemical compound

>  <STRUCTURE_ChemicalName_IUPAC>
4-chloroaniline

>  <STRUCTURE_SMILES>
NC1=CC=C(C=C1)Cl

>  <STRUCTURE_Parent_SMILES>
NC1=CC=C(C=C1)Cl

>  <STRUCTURE_InChI>
InChI=1/C6H6ClN/c7-5-1-3-6(8)4-2-5/h1-4H,8H2

>  <STRUCTURE_InChIKey>
QSNSCYSYFYORTR-UHFFFAOYAA

>  <StudyType>
Carcinogenicity

>  <Endpoint>
TD50; Tumor Target Sites

>  <Species>
rat; mouse

>  <ActivityOutcome_CPDBAS_Mutagenicity>
active

>  <ActivityScore_CPDBAS_Rat>
0

>  <TD50_Rat_Note>
no positive results

>  <TargetSites_Rat_Male>
no positive results

>  <TargetSites_Rat_Female>
no positive results

>  <ActivityOutcome_CPDBAS_Rat>
inactive

>  <ActivityScore_CPDBAS_Mouse>
0

>  <TD50_Mouse_Note>
no positive results

>  <TargetSites_Mouse_Male>
no positive results

>  <TargetSites_Mouse_Female>
no positive results

>  <ActivityOutcome_CPDBAS_Mouse>
inactive

>  <ActivityOutcome_CPDBAS_SingleCellCall>
inactive

>  <ActivityOutcome_CPDBAS_MultiCellCall>
inactive

>  <ActivityOutcome_CPDBAS_MultiCellCall_Details>
multisex inactive; multispecies inactive

>  <NTP_TechnicalReport>
TR 189

>  <ChemicalPage_URL>
http://potency.berkeley.edu/chempages/p-CHLOROANILINE.html

$$$$



 13 13  0  0  0  0  0  0  0  0999 V2000
    4.6539    0.0000    0.0000 Cl  0  0  0  0  0  0  0  0  0  0  0  0
    5.3198   -1.1488    0.0000 C   0  0  0  0  0  0  0  0  0  0  0  0
    6.6516   -1.1488    0.0000 C   0  0  0  0  0  0  0  0  0  0  0  0
    7.3175   -2.3050    0.0000 C   0  0  0  0  0  0  0  0  0  0  0  0
    6.6516   -3.4539    0.0000 C   0  0  0  0  0  0  0  0  0  0  0  0
    4.6539   -2.3050    0.0000 C   0  0  0  0  0  0  0  0  0  0  0  0
    5.3198   -3.4539    0.0000 C   0  0  0  0  0  0  0  0  0  0  0  0
    3.3295   -2.3050    0.0000 C   0  0  0  0  0  0  0  0  0  0  0  0
    2.6636   -3.4539    0.0000 C   0  0  0  0  0  0  0  0  0  0  0  0
    1.3318   -3.4539    0.0000 C   0  0  0  0  0  0  0  0  0  0  0  0
    0.0000   -3.4539    0.0000 N   0  0  0  0  0  0  0  0  0  0  0  0
    3.3295   -4.6100    0.0000 C   0  0  0  0  0  0  0  0  0  0  0  0
    3.9880   -5.7589    0.0000 N   0  0  0  0  0  0  0  0  0  0  0  0
  1  2  1  0  0  0  0
  2  3  2  0  0  0  0
  2  6  1  0  0  0  0
  3  4  1  0  0  0  0
  4  5  2  0  0  0  0
  5  7  1  0  0  0  0
  6  7  2  0  0  0  0
  6  8  1  0  0  0  0
  8  9  2  0  0  0  0
  9 10  1  0  0  0  0
  9 12  1  0  0  0  0
 10 11  3  0  0  0  0
 12 13  3  0  0  0  0
M  END
>  <DSSTox_RID>
20297

>  <DSSTox_CID>
297

>  <DSSTox_Generic_SID>
20297

>  <DSSTox_FileID>
306_CPDBAS_v5d

>  <STRUCTURE_Formula>
C10H5ClN2

>  <STRUCTURE_MolecularWeight>
188.6131

>  <STRUCTURE_ChemicalType>
defined organic

>  <STRUCTURE_TestedForm_DefinedOrganic>
parent

>  <STRUCTURE_Shown>
tested chemical

>  <TestSubstance_ChemicalName>
o-Chlorobenzalmalonitrile

>  <TestSubstance_CASRN>
2698-41-1

>  <TestSubstance_Description>
single chemical compound

>  <STRUCTURE_ChemicalName_IUPAC>
(2-chlorobenzylidene)malononitrile

>  <STRUCTURE_SMILES>
ClC1=CC=CC=C1C=C(C#N)C#N

>  <STRUCTURE_Parent_SMILES>
ClC1=CC=CC=C1C=C(C#N)C#N

>  <STRUCTURE_InChI>
InChI=1/C10H5ClN2/c11-10-4-2-1-3-9(10)5-8(6-12)7-13/h1-5H

>  <STRUCTURE_InChIKey>
JJNZXLAFIPKXIG-UHFFFAOYAA

>  <StudyType>
Carcinogenicity

>  <Endpoint>
TD50; Tumor Target Sites

>  <Species>
rat; mouse

>  <ActivityOutcome_CPDBAS_Mutagenicity>
active

>  <ActivityScore_CPDBAS_Rat>
0

>  <TD50_Rat_Note>
no positive results

>  <TargetSites_Rat_Male>
no positive results

>  <TargetSites_Rat_Female>
no positive results

>  <ActivityOutcome_CPDBAS_Rat>
inactive

>  <ActivityScore_CPDBAS_Mouse>
0

>  <TD50_Mouse_Note>
no positive results

>  <TargetSites_Mouse_Male>
no positive results

>  <TargetSites_Mouse_Female>
no positive results

>  <ActivityOutcome_CPDBAS_Mouse>
inactive

>  <ActivityOutcome_CPDBAS_SingleCellCall>
inactive

>  <ActivityOutcome_CPDBAS_MultiCellCall>
inactive

>  <ActivityOutcome_CPDBAS_MultiCellCall_Details>
multisex inactive; multispecies inactive

>  <NTP_TechnicalReport>
TR 377

>  <ChemicalPage_URL>
http://potency.berkeley.edu/chempages/o-CHLOROBENZALMALONITRILE.html

$$$$



  7  7  0  0  0  0  0  0  0  0999 V2000
    0.0000   -1.1496    0.0000 Cl  0  0  0  0  0  0  0  0  0  0  0  0
    1.3292   -1.1496    0.0000 C   0  0  0  0  0  0  0  0  0  0  0  0
    1.9958    0.0000    0.0000 C   0  0  0  0  0  0  0  0  0  0  0  0
    3.3250    0.0000    0.0000 C   0  0  0  0  0  0  0  0  0  0  0  0
    3.9916   -1.1496    0.0000 C   0  0  0  0  0  0  0  0  0  0  0  0
    3.3250   -2.3032    0.0000 C   0  0  0  0  0  0  0  0  0  0  0  0
    1.9958   -2.3032    0.0000 C   0  0  0  0  0  0  0  0  0  0  0  0
  1  2  1  0  0  0  0
  2  3  2  0  0  0  0
  2  7  1  0  0  0  0
  3  4  1  0  0  0  0
  4  5  2  0  0  0  0
  5  6  1  0  0  0  0
  6  7  2  0  0  0  0
M  END
>  <DSSTox_RID>
20298

>  <DSSTox_CID>
298

>  <DSSTox_Generic_SID>
20298

>  <DSSTox_FileID>
307_CPDBAS_v5d

>  <STRUCTURE_Formula>
C6H5Cl

>  <STRUCTURE_MolecularWeight>
112.5569

>  <STRUCTURE_ChemicalType>
defined organic

>  <STRUCTURE_TestedForm_DefinedOrganic>
parent

>  <STRUCTURE_Shown>
tested chemical

>  <TestSubstance_ChemicalName>
Chlorobenzene

>  <TestSubstance_CASRN>
108-90-7

>  <TestSubstance_Description>
single chemical compound

>  <STRUCTURE_ChemicalName_IUPAC>
chlorobenzene

>  <STRUCTURE_SMILES>
ClC1=CC=CC=C1

>  <STRUCTURE_Parent_SMILES>
ClC1=CC=CC=C1

>  <STRUCTURE_InChI>
InChI=1/C6H5Cl/c7-6-4-2-1-3-5-6/h1-5H

>  <STRUCTURE_InChIKey>
MVPPADPHJFYWMZ-UHFFFAOYAG

>  <StudyType>
Carcinogenicity

>  <Endpoint>
TD50; Tumor Target Sites

>  <Species>
rat; mouse

>  <ActivityOutcome_CPDBAS_Mutagenicity>
inactive

>  <TD50_Rat_mg>
247

>  <TD50_Rat_mmol>
2.19

>  <ActivityScore_CPDBAS_Rat>
22

>  <TargetSites_Rat_Male>
liver

>  <TargetSites_Rat_Female>
no positive results

>  <ActivityOutcome_CPDBAS_Rat>
active

>  <ActivityScore_CPDBAS_Mouse>
0

>  <TD50_Mouse_Note>
no positive results

>  <TargetSites_Mouse_Male>
no positive results

>  <TargetSites_Mouse_Female>
no positive results

>  <ActivityOutcome_CPDBAS_Mouse>
inactive

>  <ActivityOutcome_CPDBAS_SingleCellCall>
active

>  <NTP_TechnicalReport>
TR 261

>  <ChemicalPage_URL>
http://potency.berkeley.edu/chempages/CHLOROBENZENE.html

$$$$



 21 22  0  0  0  0  0  0  0  0999 V2000
    0.0000   -5.3155    0.0000 O   0  0  0  0  0  0  0  0  0  0  0  0
    1.3312   -5.3155    0.0000 C   0  0  0  0  0  0  0  0  0  0  0  0
    1.3312   -3.9936    0.0000 C   0  0  0  0  0  0  0  0  0  0  0  0
    0.1769   -3.3233    0.0000 C   0  0  0  0  0  0  0  0  0  0  0  0
    0.1769   -1.9921    0.0000 C   0  0  0  0  0  0  0  0  0  0  0  0
    1.3312   -1.3312    0.0000 C   0  0  0  0  0  0  0  0  0  0  0  0
    2.4855   -1.9921    0.0000 C   0  0  0  0  0  0  0  0  0  0  0  0
    2.4855   -3.3233    0.0000 C   0  0  0  0  0  0  0  0  0  0  0  0
    1.3312    0.0000    0.0000 Cl  0  0  0  0  0  0  0  0  0  0  0  0
    2.6624   -5.3155    0.0000 C   0  0  0  0  0  0  0  0  0  0  0  0
    3.3233   -4.1705    0.0000 C   0  0  0  0  0  0  0  0  0  0  0  0
    4.6545   -4.1705    0.0000 C   0  0  0  0  0  0  0  0  0  0  0  0
    5.3155   -5.3155    0.0000 C   0  0  0  0  0  0  0  0  0  0  0  0
    4.6545   -6.4698    0.0000 C   0  0  0  0  0  0  0  0  0  0  0  0
    3.3233   -6.4698    0.0000 C   0  0  0  0  0  0  0  0  0  0  0  0
    6.6467   -5.3155    0.0000 Cl  0  0  0  0  0  0  0  0  0  0  0  0
    1.3312   -6.6467    0.0000 C   0  0  0  0  0  0  0  0  0  0  0  0
    0.1769   -7.3169    0.0000 O   0  0  0  0  0  0  0  0  0  0  0  0
    2.4855   -7.3169    0.0000 O   0  0  0  0  0  0  0  0  0  0  0  0
    2.4855   -8.6481    0.0000 C   0  0  0  0  0  0  0  0  0  0  0  0
    3.6305   -9.3091    0.0000 C   0  0  0  0  0  0  0  0  0  0  0  0
  1  2  1  0  0  0  0
  2  3  1  0  0  0  0
  2 10  1  0  0  0  0
  2 17  1  0  0  0  0
  3  4  2  0  0  0  0
  3  8  1  0  0  0  0
  4  5  1  0  0  0  0
  5  6  2  0  0  0  0
  6  7  1  0  0  0  0
  6  9  1  0  0  0  0
  7  8  2  0  0  0  0
 10 11  2  0  0  0  0
 10 15  1  0  0  0  0
 11 12  1  0  0  0  0
 12 13  2  0  0  0  0
 13 14  1  0  0  0  0
 13 16  1  0  0  0  0
 14 15  2  0  0  0  0
 17 18  2  0  0  0  0
 17 19  1  0  0  0  0
 19 20  1  0  0  0  0
 20 21  1  0  0  0  0
M  END
>  <DSSTox_RID>
20299

>  <DSSTox_CID>
299

>  <DSSTox_Generic_SID>
20299

>  <DSSTox_FileID>
308_CPDBAS_v5d

>  <STRUCTURE_Formula>
C16H14Cl2O3

>  <STRUCTURE_MolecularWeight>
325.1866

>  <STRUCTURE_ChemicalType>
defined organic

>  <STRUCTURE_TestedForm_DefinedOrganic>
parent

>  <STRUCTURE_Shown>
tested chemical

>  <TestSubstance_ChemicalName>
Chlorobenzilate

>  <TestSubstance_CASRN>
510-15-6

>  <TestSubstance_Description>
single chemical compound

>  <STRUCTURE_ChemicalName_IUPAC>
ethyl bis(4-chlorophenyl)(hydroxy)acetate

>  <STRUCTURE_SMILES>
OC(C1=CC=C(C=C1)Cl)(C2=CC=C(C=C2)Cl)C(=O)OCC

>  <STRUCTURE_Parent_SMILES>
OC(C1=CC=C(C=C1)Cl)(C2=CC=C(C=C2)Cl)C(=O)OCC

>  <STRUCTURE_InChI>
InChI=1/C16H14Cl2O3/c1-2-21-15(19)16(20,11-3-7-13(17)8-4-11)12-5-9-14(18)10-6-12/h3-10,20H,2H2,1H3

>  <STRUCTURE_InChIKey>
RAPBNVDSDCTNRC-UHFFFAOYAH

>  <StudyType>
Carcinogenicity

>  <Endpoint>
TD50; Tumor Target Sites

>  <Species>
rat; mouse

>  <ActivityOutcome_CPDBAS_Mutagenicity>
inactive

>  <ActivityScore_CPDBAS_Rat>
0

>  <TD50_Rat_Note>
no positive results

>  <TargetSites_Rat_Male>
no positive results

>  <TargetSites_Rat_Female>
no positive results

>  <ActivityOutcome_CPDBAS_Rat>
inactive

>  <TD50_Mouse_mg>
93.9

>  <TD50_Mouse_mmol>
0.289

>  <ActivityScore_CPDBAS_Mouse>
34

>  <TD50_Mouse_Note>
TD50 is harmonic mean of more than one positive test; greater than ten-fold variation among TD50 values for positive results

>  <TargetSites_Mouse_Male>
liver

>  <TargetSites_Mouse_Female>
liver

>  <ActivityOutcome_CPDBAS_Mouse>
active

>  <ActivityOutcome_CPDBAS_SingleCellCall>
active

>  <ActivityOutcome_CPDBAS_MultiCellCall>
active

>  <ActivityOutcome_CPDBAS_MultiCellCall_Details>
multisex active

>  <NTP_TechnicalReport>
TR 75

>  <ChemicalPage_URL>
http://potency.berkeley.edu/chempages/CHLOROBENZILATE.html

$$$$



  4  3  0  0  0  0  0  0  0  0999 V2000
    1.9950    0.0000    0.0000 Cl  0  0  0  0  0  0  0  0  0  0  0  0
    1.3292   -1.1518    0.0000 C   0  0  0  0  0  0  0  0  0  0  0  0
    1.9950   -2.3037    0.0000 Br  0  0  0  0  0  0  0  0  0  0  0  0
    0.0000   -1.1518    0.0000 Br  0  0  0  0  0  0  0  0  0  0  0  0
  1  2  1  0  0  0  0
  2  3  1  0  0  0  0
  2  4  1  0  0  0  0
M  END
>  <DSSTox_RID>
20300

>  <DSSTox_CID>
300

>  <DSSTox_Generic_SID>
20300

>  <DSSTox_FileID>
309_CPDBAS_v5d

>  <STRUCTURE_Formula>
CHBr2Cl

>  <STRUCTURE_MolecularWeight>
208.2796

>  <STRUCTURE_ChemicalType>
defined organic

>  <STRUCTURE_TestedForm_DefinedOrganic>
parent

>  <STRUCTURE_Shown>
tested chemical

>  <TestSubstance_ChemicalName>
Chlorodibromomethane

>  <TestSubstance_CASRN>
124-48-1

>  <TestSubstance_Description>
single chemical compound

>  <STRUCTURE_ChemicalName_IUPAC>
dibromo(chloro)methane

>  <STRUCTURE_SMILES>
ClC(Br)Br

>  <STRUCTURE_Parent_SMILES>
ClC(Br)Br

>  <STRUCTURE_InChI>
InChI=1/CHBr2Cl/c2-1(3)4/h1H

>  <STRUCTURE_InChIKey>
GATVIKZLVQHOMN-UHFFFAOYAQ

>  <StudyType>
Carcinogenicity

>  <Endpoint>
TD50; Tumor Target Sites

>  <Species>
rat; mouse

>  <ActivityOutcome_CPDBAS_Mutagenicity>
inactive

>  <ActivityScore_CPDBAS_Rat>
0

>  <TD50_Rat_Note>
no positive results

>  <TargetSites_Rat_Male>
no positive results

>  <TargetSites_Rat_Female>
no positive results

>  <ActivityOutcome_CPDBAS_Rat>
inactive

>  <TD50_Mouse_mg>
139

>  <TD50_Mouse_mmol>
0.667

>  <ActivityScore_CPDBAS_Mouse>
30

>  <TargetSites_Mouse_Male>
no positive results

>  <TargetSites_Mouse_Female>
liver

>  <ActivityOutcome_CPDBAS_Mouse>
active

>  <ActivityOutcome_CPDBAS_SingleCellCall>
active

>  <NTP_TechnicalReport>
TR 282

>  <ChemicalPage_URL>
http://potency.berkeley.edu/chempages/CHLORODIBROMOMETHANE.html

$$$$



  4  3  0  0  0  0  0  0  0  0999 V2000
    1.9950    0.0000    0.0000 F   0  0  0  0  0  0  0  0  0  0  0  0
    1.3292   -1.1518    0.0000 C   0  0  0  0  0  0  0  0  0  0  0  0
    1.9950   -2.3037    0.0000 F   0  0  0  0  0  0  0  0  0  0  0  0
    0.0000   -1.1518    0.0000 Cl  0  0  0  0  0  0  0  0  0  0  0  0
  1  2  1  0  0  0  0
  2  3  1  0  0  0  0
  2  4  1  0  0  0  0
M  END
>  <DSSTox_RID>
20301

>  <DSSTox_CID>
301

>  <DSSTox_Generic_SID>
20301

>  <DSSTox_FileID>
310_CPDBAS_v5d

>  <STRUCTURE_Formula>
CHClF2

>  <STRUCTURE_MolecularWeight>
86.4684

>  <STRUCTURE_ChemicalType>
defined organic

>  <STRUCTURE_TestedForm_DefinedOrganic>
parent

>  <STRUCTURE_Shown>
tested chemical

>  <TestSubstance_ChemicalName>
Chlorodifluoromethane

>  <TestSubstance_CASRN>
75-45-6

>  <TestSubstance_Description>
single chemical compound

>  <STRUCTURE_ChemicalName_IUPAC>
chloro(difluoro)methane

>  <STRUCTURE_SMILES>
FC(F)Cl

>  <STRUCTURE_Parent_SMILES>
FC(F)Cl

>  <STRUCTURE_InChI>
InChI=1/CHClF2/c2-1(3)4/h1H

>  <STRUCTURE_InChIKey>
VOPWNXZWBYDODV-UHFFFAOYAQ

>  <StudyType>
Carcinogenicity

>  <Endpoint>
TD50; Tumor Target Sites

>  <Species>
rat; mouse

>  <ActivityScore_CPDBAS_Rat>
0

>  <TD50_Rat_Note>
no positive results

>  <TargetSites_Rat_Male>
no positive results

>  <TargetSites_Rat_Female>
no positive results

>  <ActivityOutcome_CPDBAS_Rat>
inactive

>  <ActivityScore_CPDBAS_Mouse>
0

>  <TD50_Mouse_Note>
no positive results

>  <TargetSites_Mouse_Male>
no positive results

>  <TargetSites_Mouse_Female>
no positive results

>  <ActivityOutcome_CPDBAS_Mouse>
inactive

>  <ActivityOutcome_CPDBAS_SingleCellCall>
inactive

>  <ActivityOutcome_CPDBAS_MultiCellCall>
inactive

>  <ActivityOutcome_CPDBAS_MultiCellCall_Details>
multisex inactive; multispecies inactive

>  <ChemicalPage_URL>
http://potency.berkeley.edu/chempages/CHLORODIFLUOROMETHANE.html

$$$$



  3  2  0  0  0  0  0  0  0  0999 V2000
    2.3030   -0.6656    0.0000 C   0  0  0  0  0  0  0  0  0  0  0  0
    1.1515    0.0000    0.0000 C   0  0  0  0  0  0  0  0  0  0  0  0
    0.0000   -0.6656    0.0000 Cl  0  0  0  0  0  0  0  0  0  0  0  0
  1  2  1  0  0  0  0
  2  3  1  0  0  0  0
M  END
>  <DSSTox_RID>
20302

>  <DSSTox_CID>
302

>  <DSSTox_Generic_SID>
20302

>  <DSSTox_FileID>
311_CPDBAS_v5d

>  <STRUCTURE_Formula>
C2H5Cl

>  <STRUCTURE_MolecularWeight>
64.5141

>  <STRUCTURE_ChemicalType>
defined organic

>  <STRUCTURE_TestedForm_DefinedOrganic>
parent

>  <STRUCTURE_Shown>
tested chemical

>  <TestSubstance_ChemicalName>
Chloroethane

>  <TestSubstance_CASRN>
75-00-3

>  <TestSubstance_Description>
single chemical compound

>  <STRUCTURE_ChemicalName_IUPAC>
chloroethane

>  <STRUCTURE_SMILES>
CCCl

>  <STRUCTURE_Parent_SMILES>
CCCl

>  <STRUCTURE_InChI>
InChI=1/C2H5Cl/c1-2-3/h2H2,1H3

>  <STRUCTURE_InChIKey>
HRYZWHHZPQKTII-UHFFFAOYAJ

>  <StudyType>
Carcinogenicity

>  <Endpoint>
TD50; Tumor Target Sites

>  <Species>
rat; mouse

>  <ActivityOutcome_CPDBAS_Mutagenicity>
active

>  <ActivityScore_CPDBAS_Rat>
0

>  <TD50_Rat_Note>
no positive results

>  <TargetSites_Rat_Male>
no positive results

>  <TargetSites_Rat_Female>
no positive results

>  <ActivityOutcome_CPDBAS_Rat>
inactive

>  <TD50_Mouse_mg>
1810

>  <TD50_Mouse_mmol>
28.1

>  <ActivityScore_CPDBAS_Mouse>
12

>  <TargetSites_Mouse_Male>
NTP bioassay inadequate

>  <TargetSites_Mouse_Female>
uterus

>  <ActivityOutcome_CPDBAS_Mouse>
active

>  <ActivityOutcome_CPDBAS_SingleCellCall>
active

>  <NTP_TechnicalReport>
TR 346

>  <ChemicalPage_URL>
http://potency.berkeley.edu/chempages/CHLOROETHANE.html

$$$$



 13 12  0  0  0  0  0  0  0  0999 V2000
    2.3072   -2.0007    0.0000 N   0  0  0  0  0  0  0  0  0  0  0  0
    3.4608   -2.6622    0.0000 C   0  0  0  0  0  0  0  0  0  0  0  0
    3.4608   -3.9933    0.0000 O   0  0  0  0  0  0  0  0  0  0  0  0
    4.6064   -2.0007    0.0000 N   0  0  0  0  0  0  0  0  0  0  0  0
    5.7600   -2.6622    0.0000 C   0  0  0  0  0  0  0  0  0  0  0  0
    6.9136   -2.0007    0.0000 C   0  0  3  0  0  0  0  0  0  0  0  0
    6.9136   -0.6696    0.0000 C   0  0  0  0  0  0  0  0  0  0  0  0
    8.0672   -2.6622    0.0000 O   0  0  0  0  0  0  0  0  0  0  0  0
    2.3072   -0.6696    0.0000 N   0  0  0  0  0  0  0  0  0  0  0  0
    3.4608    0.0000    0.0000 O   0  0  0  0  0  0  0  0  0  0  0  0
    1.1536   -2.6622    0.0000 C   0  0  3  0  0  0  0  0  0  0  0  0
    1.1536   -3.9933    0.0000 C   0  0  0  0  0  0  0  0  0  0  0  0
    0.0000   -2.0007    0.0000 Cl  0  0  0  0  0  0  0  0  0  0  0  0
  1  2  1  0  0  0  0
  1  9  1  0  0  0  0
  1 11  1  0  0  0  0
  2  3  2  0  0  0  0
  2  4  1  0  0  0  0
  4  5  1  0  0  0  0
  5  6  1  0  0  0  0
  6  7  1  0  0  0  0
  6  8  1  0  0  0  0
  9 10  2  0  0  0  0
 11 12  1  0  0  0  0
 11 13  1  0  0  0  0
M  END
>  <DSSTox_RID>
20304

>  <DSSTox_CID>
304

>  <DSSTox_Generic_SID>
20304

>  <DSSTox_FileID>
313_CPDBAS_v5d

>  <STRUCTURE_Formula>
C6H12ClN3O3

>  <STRUCTURE_MolecularWeight>
209.6321

>  <STRUCTURE_ChemicalType>
defined organic

>  <STRUCTURE_TestedForm_DefinedOrganic>
parent

>  <STRUCTURE_Shown>
tested chemical

>  <TestSubstance_ChemicalName>
1-Chloroethylnitroso-3-(2-hydroxypropyl) urea

>  <TestSubstance_CASRN>
NOCAS

>  <TestSubstance_Description>
single chemical compound

>  <STRUCTURE_ChemicalName_IUPAC>
1-(1-chloroethyl)-3-(2-hydroxypropyl)-1-nitrosourea

>  <STRUCTURE_SMILES>
N(C(=O)NCC(C)O)(N=O)C(C)Cl

>  <STRUCTURE_Parent_SMILES>
N(C(=O)NCC(C)O)(N=O)C(C)Cl

>  <STRUCTURE_InChI>
InChI=1/C6H12ClN3O3/c1-4(11)3-8-6(12)10(9-13)5(2)7/h4-5,11H,3H2,1-2H3,(H,8,12)/f/h8H

>  <STRUCTURE_InChIKey>
VRFLRRFFEHLDIV-FZOZFQFYCQ

>  <StudyType>
Carcinogenicity

>  <Endpoint>
TD50; Tumor Target Sites

>  <Species>
rat

>  <TD50_Rat_mg>
0.124

>  <TD50_Rat_mmol>
0.000592

>  <ActivityScore_CPDBAS_Rat>
59

>  <TargetSites_Rat_Male>
lung

>  <TargetSites_Rat_Female>
no positive results

>  <ActivityOutcome_CPDBAS_Rat>
active

>  <ActivityOutcome_CPDBAS_SingleCellCall>
active

>  <ChemicalPage_URL>
http://potency.berkeley.edu/chempages/1-CHLOROETHYLNITROSO-3-(2-HYDROXYPROPYL)UREA.html

$$$$



  3  2  0  0  0  0  0  0  0  0999 V2000
    2.3030   -0.6656    0.0000 F   0  0  0  0  0  0  0  0  0  0  0  0
    1.1515    0.0000    0.0000 C   0  0  0  0  0  0  0  0  0  0  0  0
    0.0000   -0.6656    0.0000 Cl  0  0  0  0  0  0  0  0  0  0  0  0
  1  2  1  0  0  0  0
  2  3  1  0  0  0  0
M  END
>  <DSSTox_RID>
20305

>  <DSSTox_CID>
305

>  <DSSTox_Generic_SID>
20305

>  <DSSTox_FileID>
314_CPDBAS_v5d

>  <STRUCTURE_Formula>
CH2ClF

>  <STRUCTURE_MolecularWeight>
68.4782

>  <STRUCTURE_ChemicalType>
defined organic

>  <STRUCTURE_TestedForm_DefinedOrganic>
parent

>  <STRUCTURE_Shown>
tested chemical

>  <TestSubstance_ChemicalName>
Chlorofluoromethane

>  <TestSubstance_CASRN>
593-70-4

>  <TestSubstance_Description>
single chemical compound

>  <STRUCTURE_ChemicalName_IUPAC>
chloro(fluoro)methane

>  <STRUCTURE_SMILES>
FCCl

>  <STRUCTURE_Parent_SMILES>
FCCl

>  <STRUCTURE_InChI>
InChI=1/CH2ClF/c2-1-3/h1H2

>  <STRUCTURE_InChIKey>
XWCDCDSDNJVCLO-UHFFFAOYAV

>  <StudyType>
Carcinogenicity

>  <Endpoint>
TD50; Tumor Target Sites

>  <Species>
rat

>  <TD50_Rat_mg>
27.5

>  <TD50_Rat_mmol>
0.402

>  <ActivityScore_CPDBAS_Rat>
30

>  <TD50_Rat_Note>
TD50 is harmonic mean of more than one positive test

>  <TargetSites_Rat_Male>
stomach

>  <TargetSites_Rat_Female>
stomach

>  <ActivityOutcome_CPDBAS_Rat>
active

>  <ActivityOutcome_CPDBAS_SingleCellCall>
active

>  <ActivityOutcome_CPDBAS_MultiCellCall>
active

>  <ActivityOutcome_CPDBAS_MultiCellCall_Details>
multisex active

>  <ChemicalPage_URL>
http://potency.berkeley.edu/chempages/CHLOROFLUOROMETHANE.html

$$$$



  4  3  0  0  0  0  0  0  0  0999 V2000
    1.9950    0.0000    0.0000 Cl  0  0  0  0  0  0  0  0  0  0  0  0
    1.3292   -1.1518    0.0000 C   0  0  0  0  0  0  0  0  0  0  0  0
    1.9950   -2.3037    0.0000 Cl  0  0  0  0  0  0  0  0  0  0  0  0
    0.0000   -1.1518    0.0000 Cl  0  0  0  0  0  0  0  0  0  0  0  0
  1  2  1  0  0  0  0
  2  3  1  0  0  0  0
  2  4  1  0  0  0  0
M  END
>  <DSSTox_RID>
20306

>  <DSSTox_CID>
306

>  <DSSTox_Generic_SID>
20306

>  <DSSTox_FileID>
315_CPDBAS_v5d

>  <STRUCTURE_Formula>
CHCl3

>  <STRUCTURE_MolecularWeight>
119.3776

>  <STRUCTURE_ChemicalType>
defined organic

>  <STRUCTURE_TestedForm_DefinedOrganic>
parent

>  <STRUCTURE_Shown>
tested chemical

>  <TestSubstance_ChemicalName>
Chloroform

>  <TestSubstance_CASRN>
67-66-3

>  <TestSubstance_Description>
single chemical compound

>  <STRUCTURE_ChemicalName_IUPAC>
chloroform

>  <STRUCTURE_SMILES>
ClC(Cl)Cl

>  <STRUCTURE_Parent_SMILES>
ClC(Cl)Cl

>  <STRUCTURE_InChI>
InChI=1/CHCl3/c2-1(3)4/h1H

>  <STRUCTURE_InChIKey>
HEDRZPFGACZZDS-UHFFFAOYAG

>  <StudyType>
Carcinogenicity

>  <Endpoint>
TD50; Tumor Target Sites

>  <Species>
rat; mouse; dog

>  <ActivityOutcome_CPDBAS_Mutagenicity>
inactive

>  <TD50_Rat_mg>
262

>  <TD50_Rat_mmol>
2.19

>  <ActivityScore_CPDBAS_Rat>
22

>  <TD50_Rat_Note>
TD50 is harmonic mean of more than one positive test

>  <TargetSites_Rat_Male>
kidney

>  <TargetSites_Rat_Female>
liver

>  <ActivityOutcome_CPDBAS_Rat>
active

>  <TD50_Mouse_mg>
111

>  <TD50_Mouse_mmol>
0.93

>  <ActivityScore_CPDBAS_Mouse>
29

>  <TD50_Mouse_Note>
TD50 is harmonic mean of more than one positive test; greater than ten-fold variation among TD50 values for positive results

>  <TargetSites_Mouse_Male>
kidney; liver

>  <TargetSites_Mouse_Female>
liver

>  <ActivityOutcome_CPDBAS_Mouse>
active

>  <TargetSites_Dog>
no positive results

>  <TD50_Dog_Primates_Note>
no positive results for Dog

>  <ActivityOutcome_CPDBAS_Dog_Primates>
inactive

>  <ActivityOutcome_CPDBAS_SingleCellCall>
active

>  <ActivityOutcome_CPDBAS_MultiCellCall>
active

>  <ActivityOutcome_CPDBAS_MultiCellCall_Details>
multisite active; multisex active; multispecies active

>  <Note_CPDBAS>
TD50_Mouse modified v5a

>  <NTP_TechnicalReport>
TR 000; final call in CPDB differs due to additional data

>  <ChemicalPage_URL>
http://potency.berkeley.edu/chempages/CHLOROFORM.html

$$$$



  4  3  0  0  0  0  0  0  0  0999 V2000
    3.4575    0.0000    0.0000 Cl  0  0  0  0  0  0  0  0  0  0  0  0
    2.3061   -0.6638    0.0000 C   0  0  0  0  0  0  0  0  0  0  0  0
    1.1513    0.0000    0.0000 O   0  0  0  0  0  0  0  0  0  0  0  0
    0.0000   -0.6638    0.0000 C   0  0  0  0  0  0  0  0  0  0  0  0
  1  2  1  0  0  0  0
  2  3  1  0  0  0  0
  3  4  1  0  0  0  0
M  END
>  <DSSTox_RID>
20307

>  <DSSTox_CID>
307

>  <DSSTox_Generic_SID>
20307

>  <DSSTox_FileID>
316_CPDBAS_v5d

>  <STRUCTURE_Formula>
C2H5ClO

>  <STRUCTURE_MolecularWeight>
80.5135

>  <STRUCTURE_ChemicalType>
defined organic

>  <STRUCTURE_TestedForm_DefinedOrganic>
parent

>  <STRUCTURE_Shown>
tested chemical

>  <TestSubstance_ChemicalName>
Chloromethyl methyl ether

>  <TestSubstance_CASRN>
107-30-2

>  <TestSubstance_Description>
single chemical compound

>  <STRUCTURE_ChemicalName_IUPAC>
chloro(methoxy)methane

>  <STRUCTURE_SMILES>
ClCOC

>  <STRUCTURE_Parent_SMILES>
ClCOC

>  <STRUCTURE_InChI>
InChI=1/C2H5ClO/c1-4-2-3/h2H2,1H3

>  <STRUCTURE_InChIKey>
XJUZRXYOEPSWMB-UHFFFAOYAK

>  <StudyType>
Carcinogenicity

>  <Endpoint>
TD50; Tumor Target Sites

>  <Species>
rat; hamster

>  <ActivityOutcome_CPDBAS_Mutagenicity>
inactive

>  <TD50_Rat_mg>
5.5

>  <TD50_Rat_mmol>
0.0683

>  <ActivityScore_CPDBAS_Rat>
38

>  <TargetSites_Rat_Male>
mixture

>  <ActivityOutcome_CPDBAS_Rat>
active

>  <TD50_Hamster_mg>
16.4

>  <TD50_Hamster_mmol>
0.204

>  <ActivityScore_CPDBAS_Hamster>
43

>  <TargetSites_Hamster_Male>
mixture

>  <ActivityOutcome_CPDBAS_Hamster>
active

>  <ActivityOutcome_CPDBAS_SingleCellCall>
active

>  <ActivityOutcome_CPDBAS_MultiCellCall>
active

>  <ActivityOutcome_CPDBAS_MultiCellCall_Details>
multispecies active

>  <ChemicalPage_URL>
http://potency.berkeley.edu/chempages/CHLOROMETHYL%20METHYL%20ETHER.html

$$$$



 18 19  0  0  0  0  0  0  0  0999 V2000
    6.4219    0.0000    0.0000 O   0  0  0  0  0  0  0  0  0  0  0  0
    5.7590   -1.1497    0.0000 S   0  0  0  0  0  0  0  0  0  0  0  0
    5.0858   -2.3098    0.0000 O   0  0  0  0  0  0  0  0  0  0  0  0
    6.9087   -1.8230    0.0000 C   0  0  0  0  0  0  0  0  0  0  0  0
    8.0585   -1.1497    0.0000 C   0  0  0  0  0  0  0  0  0  0  0  0
    9.2082   -1.8230    0.0000 C   0  0  0  0  0  0  0  0  0  0  0  0
    9.2082   -3.1488    0.0000 C   0  0  0  0  0  0  0  0  0  0  0  0
    8.0585   -3.8117    0.0000 C   0  0  0  0  0  0  0  0  0  0  0  0
    6.9087   -3.1488    0.0000 C   0  0  0  0  0  0  0  0  0  0  0  0
   10.3579   -3.8117    0.0000 Cl  0  0  0  0  0  0  0  0  0  0  0  0
    4.5989   -0.4868    0.0000 O   0  0  0  0  0  0  0  0  0  0  0  0
    3.4492   -1.1497    0.0000 C   0  0  0  0  0  0  0  0  0  0  0  0
    2.2995   -0.4868    0.0000 C   0  0  0  0  0  0  0  0  0  0  0  0
    1.1497   -1.1497    0.0000 C   0  0  0  0  0  0  0  0  0  0  0  0
    1.1497   -2.4859    0.0000 C   0  0  0  0  0  0  0  0  0  0  0  0
    2.2995   -3.1488    0.0000 C   0  0  0  0  0  0  0  0  0  0  0  0
    3.4492   -2.4859    0.0000 C   0  0  0  0  0  0  0  0  0  0  0  0
    0.0000   -3.1488    0.0000 Cl  0  0  0  0  0  0  0  0  0  0  0  0
  1  2  2  0  0  0  0
  2  3  2  0  0  0  0
  2  4  1  0  0  0  0
  2 11  1  0  0  0  0
  4  5  2  0  0  0  0
  4  9  1  0  0  0  0
  5  6  1  0  0  0  0
  6  7  2  0  0  0  0
  7  8  1  0  0  0  0
  7 10  1  0  0  0  0
  8  9  2  0  0  0  0
 11 12  1  0  0  0  0
 12 13  2  0  0  0  0
 12 17  1  0  0  0  0
 13 14  1  0  0  0  0
 14 15  2  0  0  0  0
 15 16  1  0  0  0  0
 15 18  1  0  0  0  0
 16 17  2  0  0  0  0
M  END
>  <DSSTox_RID>
20310

>  <DSSTox_CID>
310

>  <DSSTox_Generic_SID>
20310

>  <DSSTox_FileID>
319_CPDBAS_v5d

>  <STRUCTURE_Formula>
C12H8Cl2O3S

>  <STRUCTURE_MolecularWeight>
303.1594

>  <STRUCTURE_ChemicalType>
defined organic

>  <STRUCTURE_TestedForm_DefinedOrganic>
parent

>  <STRUCTURE_Shown>
tested chemical

>  <TestSubstance_ChemicalName>
p-Chlorophenyl-p-chlorobenzene sulfonate

>  <TestSubstance_CASRN>
80-33-1

>  <TestSubstance_Description>
single chemical compound

>  <STRUCTURE_ChemicalName_IUPAC>
4-chlorophenyl 4-chlorobenzenesulfonate

>  <STRUCTURE_SMILES>
O=S(=O)(C1=CC=C(C=C1)Cl)OC2=CC=C(C=C2)Cl

>  <STRUCTURE_Parent_SMILES>
O=S(=O)(C1=CC=C(C=C1)Cl)OC2=CC=C(C=C2)Cl

>  <STRUCTURE_InChI>
InChI=1/C12H8Cl2O3S/c13-9-1-5-11(6-2-9)17-18(15,16)12-7-3-10(14)4-8-12/h1-8H

>  <STRUCTURE_InChIKey>
RZXLPPRPEOUENN-UHFFFAOYAL

>  <StudyType>
Carcinogenicity

>  <Endpoint>
TD50; Tumor Target Sites

>  <Species>
mouse

>  <ActivityScore_CPDBAS_Mouse>
0

>  <TD50_Mouse_Note>
no positive results

>  <TargetSites_Mouse_Male>
no positive results

>  <TargetSites_Mouse_Female>
no positive results

>  <ActivityOutcome_CPDBAS_Mouse>
inactive

>  <ActivityOutcome_CPDBAS_SingleCellCall>
inactive

>  <ActivityOutcome_CPDBAS_MultiCellCall>
inactive

>  <ActivityOutcome_CPDBAS_MultiCellCall_Details>
multisex inactive

>  <ChemicalPage_URL>
http://potency.berkeley.edu/chempages/p-CHLOROPHENYL-p-CHLOROBENZENE%20SULFONATE.html

$$$$



 13 13  0  0  0  0  0  0  0  0999 V2000
    2.6555    0.0000    0.0000 O   0  0  0  0  0  0  0  0  0  0  0  0
    1.9937   -1.1483    0.0000 C   0  0  0  0  0  0  0  0  0  0  0  0
    0.6619   -1.1483    0.0000 N   0  0  0  0  0  0  0  0  0  0  0  0
    0.0000   -2.3047    0.0000 C   0  0  0  0  0  0  0  0  0  0  0  0
    0.0000    0.0000    0.0000 C   0  0  0  0  0  0  0  0  0  0  0  0
    2.6555   -2.3047    0.0000 N   0  0  0  0  0  0  0  0  0  0  0  0
    3.9873   -2.3047    0.0000 C   0  0  0  0  0  0  0  0  0  0  0  0
    4.6492   -1.1483    0.0000 C   0  0  0  0  0  0  0  0  0  0  0  0
    5.9810   -1.1483    0.0000 C   0  0  0  0  0  0  0  0  0  0  0  0
    6.6429   -2.3047    0.0000 C   0  0  0  0  0  0  0  0  0  0  0  0
    5.9810   -3.4530    0.0000 C   0  0  0  0  0  0  0  0  0  0  0  0
    4.6492   -3.4530    0.0000 C   0  0  0  0  0  0  0  0  0  0  0  0
    7.9746   -2.3047    0.0000 Cl  0  0  0  0  0  0  0  0  0  0  0  0
  1  2  2  0  0  0  0
  2  3  1  0  0  0  0
  2  6  1  0  0  0  0
  3  4  1  0  0  0  0
  3  5  1  0  0  0  0
  6  7  1  0  0  0  0
  7  8  2  0  0  0  0
  7 12  1  0  0  0  0
  8  9  1  0  0  0  0
  9 10  2  0  0  0  0
 10 11  1  0  0  0  0
 10 13  1  0  0  0  0
 11 12  2  0  0  0  0
M  END
>  <DSSTox_RID>
20311

>  <DSSTox_CID>
311

>  <DSSTox_Generic_SID>
20311

>  <DSSTox_FileID>
320_CPDBAS_v5d

>  <STRUCTURE_Formula>
C9H11ClN2O

>  <STRUCTURE_MolecularWeight>
198.6494

>  <STRUCTURE_ChemicalType>
defined organic

>  <STRUCTURE_TestedForm_DefinedOrganic>
parent

>  <STRUCTURE_Shown>
tested chemical

>  <TestSubstance_ChemicalName>
3-(p-Chlorophenyl)-1,1-dimethylurea

>  <TestSubstance_CASRN>
150-68-5

>  <TestSubstance_Description>
single chemical compound

>  <STRUCTURE_ChemicalName_IUPAC>
3-(4-chlorophenyl)-1,1-dimethylurea

>  <STRUCTURE_SMILES>
O=C(N(C)C)NC1=CC=C(C=C1)Cl

>  <STRUCTURE_Parent_SMILES>
O=C(N(C)C)NC1=CC=C(C=C1)Cl

>  <STRUCTURE_InChI>
InChI=1/C9H11ClN2O/c1-12(2)9(13)11-8-5-3-7(10)4-6-8/h3-6H,1-2H3,(H,11,13)/f/h11H

>  <STRUCTURE_InChIKey>
BMLIZLVNXIYGCK-WXRBYKJCCS

>  <StudyType>
Carcinogenicity

>  <Endpoint>
TD50; Tumor Target Sites

>  <Species>
rat; mouse

>  <ActivityOutcome_CPDBAS_Mutagenicity>
inactive

>  <TD50_Rat_mg>
131

>  <TD50_Rat_mmol>
0.659

>  <ActivityScore_CPDBAS_Rat>
28

>  <TargetSites_Rat_Male>
kidney; liver

>  <TargetSites_Rat_Female>
no positive results

>  <ActivityOutcome_CPDBAS_Rat>
active

>  <ActivityScore_CPDBAS_Mouse>
0

>  <TD50_Mouse_Note>
no positive results

>  <TargetSites_Mouse_Male>
no positive results

>  <TargetSites_Mouse_Female>
no positive results

>  <ActivityOutcome_CPDBAS_Mouse>
inactive

>  <ActivityOutcome_CPDBAS_SingleCellCall>
active

>  <ActivityOutcome_CPDBAS_MultiCellCall>
active

>  <ActivityOutcome_CPDBAS_MultiCellCall_Details>
multisite active

>  <NTP_TechnicalReport>
TR 266

>  <ChemicalPage_URL>
http://potency.berkeley.edu/chempages/3-(p-CHLOROPHENYL)-1,1-DIMETHYLUREA.html

$$$$



 34 38  0  0  0  0  0  0  0  0999 V2000
   11.7600   -2.0386    0.0000 N   0  0  0  0  0  0  0  0  0  0  0  0
   13.0836   -2.0386    0.0000 C   0  0  0  0  0  0  0  0  0  0  0  0
   13.9204   -3.0731    0.0000 C   0  0  3  0  0  0  0  0  0  0  0  0
   13.6161   -4.3815    0.0000 N   0  0  0  0  0  0  0  0  0  0  0  0
   12.4142   -4.9596    0.0000 C   0  0  0  0  0  0  0  0  0  0  0  0
   11.2276   -4.3815    0.0000 C   0  0  0  0  0  0  0  0  0  0  0  0
   10.9233   -3.0731    0.0000 C   0  0  0  0  0  0  0  0  0  0  0  0
   12.4142    0.0000    0.0000 N   0  0  0  0  0  0  0  0  0  0  0  0
   13.4944   -0.7759    0.0000 N   0  0  0  0  0  0  0  0  0  0  0  0
   11.3493   -0.7759    0.0000 C   0  0  0  0  0  0  0  0  0  0  0  0
    9.5997   -2.9666    0.0000 S   0  0  0  0  0  0  0  0  0  0  0  0
    9.0825   -4.1837    0.0000 C   0  0  0  0  0  0  0  0  0  0  0  0
   10.0866   -5.0661    0.0000 C   0  0  0  0  0  0  0  0  0  0  0  0
   12.4142   -6.2832    0.0000 C   0  0  0  0  0  0  0  0  0  0  0  0
   13.5705   -6.9526    0.0000 C   0  0  0  0  0  0  0  0  0  0  0  0
   11.2732   -6.9526    0.0000 C   0  0  0  0  0  0  0  0  0  0  0  0
   13.5705   -8.2762    0.0000 C   0  0  0  0  0  0  0  0  0  0  0  0
   11.2732   -8.2762    0.0000 C   0  0  0  0  0  0  0  0  0  0  0  0
   12.4142   -8.9455    0.0000 C   0  0  0  0  0  0  0  0  0  0  0  0
   14.7267   -6.2832    0.0000 Cl  0  0  0  0  0  0  0  0  0  0  0  0
    7.7893   -4.4728    0.0000 C   0  0  0  0  0  0  0  0  0  0  0  0
    7.3938   -5.7507    0.0000 C   0  0  0  0  0  0  0  0  0  0  0  0
    6.0854   -6.0550    0.0000 C   0  0  0  0  0  0  0  0  0  0  0  0
    5.7051   -7.3177    0.0000 C   0  0  0  0  0  0  0  0  0  0  0  0
    5.1878   -5.0661    0.0000 C   0  0  0  0  0  0  0  0  0  0  0  0
    4.3967   -7.6220    0.0000 C   0  0  0  0  0  0  0  0  0  0  0  0
    3.8947   -5.3704    0.0000 C   0  0  0  0  0  0  0  0  0  0  0  0
    3.4991   -6.6331    0.0000 C   0  0  0  0  0  0  0  0  0  0  0  0
    2.2060   -6.9374    0.0000 C   0  0  0  0  0  0  0  0  0  0  0  0
    1.2931   -5.9637    0.0000 C   0  0  0  0  0  0  0  0  0  0  0  0
    1.6887   -4.6858    0.0000 C   0  0  0  0  0  0  0  0  0  0  0  0
    0.0000   -6.2528    0.0000 C   0  0  0  0  0  0  0  0  0  0  0  0
   15.2135   -2.7841    0.0000 C   0  0  0  0  0  0  0  0  0  0  0  0
   10.0866   -0.3651    0.0000 C   0  0  0  0  0  0  0  0  0  0  0  0
  1  2  1  0  0  0  0
  1  7  1  0  0  0  0
  1 10  1  0  0  0  0
  2  3  1  0  0  0  0
  2  9  2  0  0  0  0
  3  4  1  0  0  0  0
  3 33  1  0  0  0  0
  4  5  2  0  0  0  0
  5  6  1  0  0  0  0
  5 14  1  0  0  0  0
  6  7  2  0  0  0  0
  6 13  1  0  0  0  0
  7 11  1  0  0  0  0
  8  9  1  0  0  0  0
  8 10  2  0  0  0  0
 10 34  1  0  0  0  0
 11 12  1  0  0  0  0
 12 13  2  0  0  0  0
 12 21  1  0  0  0  0
 14 15  2  0  0  0  0
 14 16  1  0  0  0  0
 15 17  1  0  0  0  0
 15 20  1  0  0  0  0
 16 18  2  0  0  0  0
 17 19  2  0  0  0  0
 18 19  1  0  0  0  0
 21 22  1  0  0  0  0
 22 23  1  0  0  0  0
 23 24  2  0  0  0  0
 23 25  1  0  0  0  0
 24 26  1  0  0  0  0
 25 27  2  0  0  0  0
 26 28  2  0  0  0  0
 27 28  1  0  0  0  0
 28 29  1  0  0  0  0
 29 30  1  0  0  0  0
 30 31  1  0  0  0  0
 30 32  1  0  0  0  0
M  END
>  <DSSTox_RID>
20312

>  <DSSTox_CID>
312

>  <DSSTox_Generic_SID>
20312

>  <DSSTox_FileID>
321_CPDBAS_v5d

>  <STRUCTURE_Formula>
C28H29ClN4S

>  <STRUCTURE_MolecularWeight>
489.0747

>  <STRUCTURE_ChemicalType>
defined organic

>  <STRUCTURE_TestedForm_DefinedOrganic>
parent

>  <STRUCTURE_Shown>
tested chemical

>  <TestSubstance_ChemicalName>
(+-)-4-(2-chlorophenyl)-2-[2-(4-isobutylphenyl)ethyl]-6,9-dimethyl-6H-thieno[3,2-f][1,2,4]triazolo[4,3-a][1,4]diazepine

>  <TestSubstance_CASRN>
117279-73-9

>  <TestSubstance_Description>
single chemical compound

>  <ChemicalNote>
Y 24180

>  <STRUCTURE_ChemicalName_IUPAC>
4-(2-chlorophenyl)-6,9-dimethyl-2-{2-[4-(2-methylpropyl)phenyl]ethyl}-6H-thieno[3,2-f][1,2,4]triazolo[4,3-a][1,4]diazepine

>  <STRUCTURE_SMILES>
ClC4=C(C=CC=C4)C2=NC(C)C1=NN=C(C)N1C3=C2C=C(CCC5=CC=C(CC(C)C)C=C5)S3

>  <STRUCTURE_Parent_SMILES>
ClC4=C(C=CC=C4)C2=NC(C)C1=NN=C(C)N1C3=C2C=C(CCC5=CC=C(CC(C)C)C=C5)S3

>  <STRUCTURE_InChI>
InChI=1/C28H29ClN4S/c1-17(2)15-21-11-9-20(10-12-21)13-14-22-16-24-26(23-7-5-6-8-25(23)29)30-18(3)27-32-31-19(4)33(27)28(24)34-22/h5-12,16-18H,13-15H2,1-4H3

>  <STRUCTURE_InChIKey>
RMSWMRJVUJSDGN-UHFFFAOYAS

>  <StudyType>
Carcinogenicity

>  <Endpoint>
TD50; Tumor Target Sites

>  <Species>
rat

>  <ActivityScore_CPDBAS_Rat>
0

>  <TD50_Rat_Note>
no positive results

>  <TargetSites_Rat_Male>
no positive results

>  <TargetSites_Rat_Female>
no positive results

>  <ActivityOutcome_CPDBAS_Rat>
inactive

>  <ActivityOutcome_CPDBAS_SingleCellCall>
inactive

>  <ActivityOutcome_CPDBAS_MultiCellCall>
inactive

>  <ActivityOutcome_CPDBAS_MultiCellCall_Details>
multisex inactive

>  <Note_CPDBAS>
Rat added v3a; chemical added v3a

>  <ChemicalPage_URL>
http://potency.berkeley.edu/chempages/(+-)-(4)-(2-CHLOROPHENYL)-2-[2-(4-ISOBUTYLPHENYL)E.html

$$$$



 20 21  0  0  0  0  0  0  0  0999 V2000
    1.5031   -7.3083    0.0000 C   0  0  0  0  0  0  0  0  0  0  0  0
    0.3542   -6.6431    0.0000 N   0  0  0  0  0  0  0  0  0  0  0  0
    1.5031   -8.6386    0.0000 O   0  0  0  0  0  0  0  0  0  0  0  0
    2.6607   -6.6431    0.0000 O   0  0  0  0  0  0  0  0  0  0  0  0
    2.6607   -5.3128    0.0000 C   0  0  3  0  0  0  0  0  0  0  0  0
    1.3303   -5.3128    0.0000 C   0  0  0  0  0  0  0  0  0  0  0  0
    0.0000   -5.3128    0.0000 C   0  0  0  0  0  0  0  0  0  0  0  0
    3.9910   -5.3128    0.0000 C   0  0  0  0  0  0  0  0  0  0  0  0
    4.6476   -4.1638    0.0000 C   0  0  0  0  0  0  0  0  0  0  0  0
    5.9779   -4.1638    0.0000 C   0  0  0  0  0  0  0  0  0  0  0  0
    6.6431   -5.3128    0.0000 C   0  0  0  0  0  0  0  0  0  0  0  0
    5.9779   -6.4703    0.0000 C   0  0  0  0  0  0  0  0  0  0  0  0
    4.6476   -6.4703    0.0000 C   0  0  0  0  0  0  0  0  0  0  0  0
    2.6607   -3.9910    0.0000 C   0  0  0  0  0  0  0  0  0  0  0  0
    1.5031   -3.3259    0.0000 C   0  0  0  0  0  0  0  0  0  0  0  0
    1.5031   -1.9955    0.0000 C   0  0  0  0  0  0  0  0  0  0  0  0
    2.6607   -1.3303    0.0000 C   0  0  0  0  0  0  0  0  0  0  0  0
    3.8096   -1.9955    0.0000 C   0  0  0  0  0  0  0  0  0  0  0  0
    3.8096   -3.3259    0.0000 C   0  0  0  0  0  0  0  0  0  0  0  0
    2.6607    0.0000    0.0000 Cl  0  0  0  0  0  0  0  0  0  0  0  0
  1  2  1  0  0  0  0
  1  3  2  0  0  0  0
  1  4  1  0  0  0  0
  4  5  1  0  0  0  0
  5  6  1  0  0  0  0
  5  8  1  0  0  0  0
  5 14  1  0  0  0  0
  6  7  3  0  0  0  0
  8  9  1  0  0  0  0
  8 13  2  0  0  0  0
  9 10  2  0  0  0  0
 10 11  1  0  0  0  0
 11 12  2  0  0  0  0
 12 13  1  0  0  0  0
 14 15  1  0  0  0  0
 14 19  2  0  0  0  0
 15 16  2  0  0  0  0
 16 17  1  0  0  0  0
 17 18  2  0  0  0  0
 17 20  1  0  0  0  0
 18 19  1  0  0  0  0
M  END
>  <DSSTox_RID>
20313

>  <DSSTox_CID>
313

>  <DSSTox_Generic_SID>
20313

>  <DSSTox_FileID>
322_CPDBAS_v5d

>  <STRUCTURE_Formula>
C16H12ClNO2

>  <STRUCTURE_MolecularWeight>
285.7293

>  <STRUCTURE_ChemicalType>
defined organic

>  <STRUCTURE_TestedForm_DefinedOrganic>
parent

>  <STRUCTURE_Shown>
tested chemical

>  <TestSubstance_ChemicalName>
1-(4-Chlorophenyl)-1-phenyl-2-propynyl carbamate

>  <TestSubstance_CASRN>
10473-70-8

>  <TestSubstance_Description>
single chemical compound

>  <STRUCTURE_ChemicalName_IUPAC>
1-(4-chlorophenyl)-1-phenylprop-2-yn-1-yl carbamate

>  <STRUCTURE_SMILES>
C(N)(=O)OC(C#C)(C1C=CC=CC=1)C2C=CC(=CC=2)Cl

>  <STRUCTURE_Parent_SMILES>
C(N)(=O)OC(C#C)(C1C=CC=CC=1)C2C=CC(=CC=2)Cl

>  <STRUCTURE_InChI>
InChI=1/C16H12ClNO2/c1-2-16(20-15(18)19,12-6-4-3-5-7-12)13-8-10-14(17)11-9-13/h1,3-11H,(H2,18,19)/f/h18H2

>  <STRUCTURE_InChIKey>
SXHWIUYWGJFLKB-DZQCGVKKCU

>  <StudyType>
Carcinogenicity

>  <Endpoint>
TD50; Tumor Target Sites

>  <Species>
rat

>  <TD50_Rat_mg>
8.78

>  <TD50_Rat_mmol>
0.0307

>  <ActivityScore_CPDBAS_Rat>
41

>  <TargetSites_Rat_Male>
nervous system; small intestine

>  <ActivityOutcome_CPDBAS_Rat>
active

>  <ActivityOutcome_CPDBAS_SingleCellCall>
active

>  <ActivityOutcome_CPDBAS_MultiCellCall>
active

>  <ActivityOutcome_CPDBAS_MultiCellCall_Details>
multisite active

>  <ChemicalPage_URL>
http://potency.berkeley.edu/chempages/1-(4-CHLOROPHENYL)-1-PHENYL-2-PROPYNYL%20CARBAMATE.html

$$$$



 17 18  0  0  0  0  0  0  0  0999 V2000
    4.6047   -2.6615    0.0000 Cl  0  0  0  0  0  0  0  0  0  0  0  0
    3.4535   -1.9984    0.0000 C   0  0  0  0  0  0  0  0  0  0  0  0
    2.3023   -2.6615    0.0000 C   0  0  0  0  0  0  0  0  0  0  0  0
    1.1512   -1.9984    0.0000 C   0  0  0  0  0  0  0  0  0  0  0  0
    1.1512   -0.6631    0.0000 C   0  0  0  0  0  0  0  0  0  0  0  0
    2.3023    0.0000    0.0000 C   0  0  0  0  0  0  0  0  0  0  0  0
    3.4535   -0.6631    0.0000 C   0  0  0  0  0  0  0  0  0  0  0  0
    4.6047    0.0000    0.0000 S   0  0  0  0  0  0  0  0  0  0  0  0
    5.7558   -0.6631    0.0000 C   0  0  0  0  0  0  0  0  0  0  0  0
    6.9070    0.0000    0.0000 C   0  0  0  0  0  0  0  0  0  0  0  0
    8.0581   -0.6631    0.0000 C   0  0  0  0  0  0  0  0  0  0  0  0
    8.0581   -1.9984    0.0000 C   0  0  0  0  0  0  0  0  0  0  0  0
    6.9070   -2.6615    0.0000 C   0  0  0  0  0  0  0  0  0  0  0  0
    5.7558   -1.9984    0.0000 C   0  0  0  0  0  0  0  0  0  0  0  0
    9.2093   -2.6615    0.0000 Cl  0  0  0  0  0  0  0  0  0  0  0  0
    0.0000    0.0000    0.0000 Cl  0  0  0  0  0  0  0  0  0  0  0  0
    0.0000   -2.6615    0.0000 Cl  0  0  0  0  0  0  0  0  0  0  0  0
  1  2  1  0  0  0  0
  2  3  2  0  0  0  0
  2  7  1  0  0  0  0
  3  4  1  0  0  0  0
  4  5  2  0  0  0  0
  4 17  1  0  0  0  0
  5  6  1  0  0  0  0
  5 16  1  0  0  0  0
  6  7  2  0  0  0  0
  7  8  1  0  0  0  0
  8  9  1  0  0  0  0
  9 10  2  0  0  0  0
  9 14  1  0  0  0  0
 10 11  1  0  0  0  0
 11 12  2  0  0  0  0
 12 13  1  0  0  0  0
 12 15  1  0  0  0  0
 13 14  2  0  0  0  0
M  END
>  <DSSTox_RID>
20314

>  <DSSTox_CID>
314

>  <DSSTox_Generic_SID>
20314

>  <DSSTox_FileID>
323_CPDBAS_v5d

>  <STRUCTURE_Formula>
C12H6Cl4S

>  <STRUCTURE_MolecularWeight>
324.0514

>  <STRUCTURE_ChemicalType>
defined organic

>  <STRUCTURE_TestedForm_DefinedOrganic>
parent

>  <STRUCTURE_Shown>
tested chemical

>  <TestSubstance_ChemicalName>
p-Chlorophenyl-2,4,5-trichlorophenyl sulfide

>  <TestSubstance_CASRN>
2227-13-6

>  <TestSubstance_Description>
single chemical compound

>  <STRUCTURE_ChemicalName_IUPAC>
1,2,4-trichloro-5-[(4-chlorophenyl)thio]benzene

>  <STRUCTURE_SMILES>
ClC1=CC(=C(C=C1SC2=CC=C(C=C2)Cl)Cl)Cl

>  <STRUCTURE_Parent_SMILES>
ClC1=CC(=C(C=C1SC2=CC=C(C=C2)Cl)Cl)Cl

>  <STRUCTURE_InChI>
InChI=1/C12H6Cl4S/c13-7-1-3-8(4-2-7)17-12-6-10(15)9(14)5-11(12)16/h1-6H

>  <STRUCTURE_InChIKey>
QUWSDLYBOVGOCW-UHFFFAOYAJ

>  <StudyType>
Carcinogenicity

>  <Endpoint>
TD50; Tumor Target Sites

>  <Species>
rat

>  <ActivityScore_CPDBAS_Rat>
0

>  <TD50_Rat_Note>
no positive results

>  <TargetSites_Rat_Male>
no positive results

>  <TargetSites_Rat_Female>
no positive results

>  <ActivityOutcome_CPDBAS_Rat>
inactive

>  <ActivityOutcome_CPDBAS_SingleCellCall>
inactive

>  <ActivityOutcome_CPDBAS_MultiCellCall>
inactive

>  <ActivityOutcome_CPDBAS_MultiCellCall_Details>
multisex inactive

>  <ChemicalPage_URL>
http://potency.berkeley.edu/chempages/p-CHLOROPHENYL-2,4,5-TRICHLOROPHENYL%20SULFIDE.html

$$$$



  7  6  0  0  0  0  0  0  0  0999 V2000
    2.6608   -1.9956    0.0000 Cl  0  0  0  0  0  0  0  0  0  0  0  0
    1.3304   -1.9956    0.0000 C   0  0  0  0  0  0  0  0  0  0  0  0
    1.3304   -0.6652    0.0000 N   0  3  0  0  0  0  0  0  0  0  0  0
    0.1796    0.0000    0.0000 O   0  0  0  0  0  0  0  0  0  0  0  0
    2.4812    0.0000    0.0000 O   0  5  0  0  0  0  0  0  0  0  0  0
    1.3304   -3.3260    0.0000 Cl  0  0  0  0  0  0  0  0  0  0  0  0
    0.0000   -1.9956    0.0000 Cl  0  0  0  0  0  0  0  0  0  0  0  0
  1  2  1  0  0  0  0
  2  3  1  0  0  0  0
  2  6  1  0  0  0  0
  2  7  1  0  0  0  0
  3  4  2  0  0  0  0
  3  5  1  0  0  0  0
M  END
>  <DSSTox_RID>
20315

>  <DSSTox_CID>
315

>  <DSSTox_Generic_SID>
20315

>  <DSSTox_FileID>
324_CPDBAS_v5d

>  <STRUCTURE_Formula>
CCl3NO2

>  <STRUCTURE_MolecularWeight>
164.3752

>  <STRUCTURE_ChemicalType>
defined organic

>  <STRUCTURE_TestedForm_DefinedOrganic>
parent

>  <STRUCTURE_Shown>
tested chemical

>  <TestSubstance_ChemicalName>
Chloropicrin

>  <TestSubstance_CASRN>
76-06-2

>  <TestSubstance_Description>
single chemical compound

>  <STRUCTURE_ChemicalName_IUPAC>
trichloro(nitro)methane

>  <STRUCTURE_SMILES>
ClC([N+](=O)[O-])(Cl)Cl

>  <STRUCTURE_Parent_SMILES>
ClC([N+](=O)[O-])(Cl)Cl

>  <STRUCTURE_InChI>
InChI=1/CCl3NO2/c2-1(3,4)5(6)7

>  <STRUCTURE_InChIKey>
LFHISGNCFUNFFM-UHFFFAOYAJ

>  <StudyType>
Carcinogenicity

>  <Endpoint>
TD50; Tumor Target Sites

>  <Species>
rat; mouse

>  <ActivityOutcome_CPDBAS_Mutagenicity>
active

>  <ActivityScore_CPDBAS_Rat>
0

>  <TD50_Rat_Note>
only experiment is NCI NTP bioassay inadequate

>  <TargetSites_Rat_Male>
NTP bioassay inadequate

>  <TargetSites_Rat_Female>
NTP bioassay inadequate

>  <ActivityOutcome_CPDBAS_Rat>
unspecified

>  <ActivityScore_CPDBAS_Mouse>
0

>  <TD50_Mouse_Note>
no positive results

>  <TargetSites_Mouse_Male>
no positive results

>  <TargetSites_Mouse_Female>
no positive results

>  <ActivityOutcome_CPDBAS_Mouse>
inactive

>  <ActivityOutcome_CPDBAS_SingleCellCall>
inactive

>  <ActivityOutcome_CPDBAS_MultiCellCall>
inactive

>  <ActivityOutcome_CPDBAS_MultiCellCall_Details>
multisex inactive

>  <Note_CPDBAS>
ActivityOutcome_CPDBAS_Rat modified v5d

>  <NTP_TechnicalReport>
TR 65

>  <ChemicalPage_URL>
http://potency.berkeley.edu/chempages/CHLOROPICRIN.html

$$$$



  5  4  0  0  0  0  0  0  0  0999 V2000
    2.2415   -0.6520    0.0000 C   0  0  0  0  0  0  0  0  0  0  0  0
    1.1191    0.0000    0.0000 C   0  0  0  0  0  0  0  0  0  0  0  0
    3.3606    0.0000    0.0000 C   0  0  0  0  0  0  0  0  0  0  0  0
    0.0000   -0.6520    0.0000 C   0  0  0  0  0  0  0  0  0  0  0  0
    2.2415   -2.0836    0.0000 Cl  0  0  0  0  0  0  0  0  0  0  0  0
  1  2  1  0  0  0  0
  1  3  2  0  0  0  0
  1  5  1  0  0  0  0
  2  4  2  0  0  0  0
M  END
>  <DSSTox_RID>
20316

>  <DSSTox_CID>
316

>  <DSSTox_Generic_SID>
20316

>  <DSSTox_FileID>
325_CPDBAS_v5d

>  <STRUCTURE_Formula>
C4H5Cl

>  <STRUCTURE_MolecularWeight>
88.5355

>  <STRUCTURE_ChemicalType>
defined organic

>  <STRUCTURE_TestedForm_DefinedOrganic>
parent

>  <STRUCTURE_Shown>
tested chemical

>  <TestSubstance_ChemicalName>
Chloroprene (>96% chloroprene)

>  <TestSubstance_CASRN>
126-99-8

>  <TestSubstance_Description>
single chemical compound

>  <STRUCTURE_ChemicalName_IUPAC>
2-chlorobuta-1,3-diene

>  <STRUCTURE_SMILES>
C=C(Cl)C=C

>  <STRUCTURE_Parent_SMILES>
C=C(Cl)C=C

>  <STRUCTURE_InChI>
InChI=1/C4H5Cl/c1-3-4(2)5/h3H,1-2H2

>  <STRUCTURE_InChIKey>
YACLQRRMGMJLJV-UHFFFAOYAQ

>  <StudyType>
Carcinogenicity

>  <Endpoint>
TD50; Tumor Target Sites

>  <Species>
rat; mouse

>  <ActivityOutcome_CPDBAS_Mutagenicity>
inactive

>  <TD50_Rat_mg>
12.5

>  <TD50_Rat_mmol>
0.141

>  <ActivityScore_CPDBAS_Rat>
34

>  <TD50_Rat_Note>
TD50 is harmonic mean of more than one positive test

>  <TargetSites_Rat_Male>
kidney; lung; oral cavity; thyroid gland

>  <TargetSites_Rat_Female>
kidney; mammary gland; oral cavity; thyroid gland

>  <ActivityOutcome_CPDBAS_Rat>
active

>  <TD50_Mouse_mg>
8.17

>  <TD50_Mouse_mmol>
0.0923

>  <ActivityScore_CPDBAS_Mouse>
40

>  <TD50_Mouse_Note>
TD50 is harmonic mean of more than one positive test

>  <TargetSites_Mouse_Male>
harderian gland; kidney; lung; stomach; vascular system

>  <TargetSites_Mouse_Female>
ear Zymbals gland; harderian gland; liver; lung; mammary gland; peritoneal cavity; stomach; subcutaneous tissue; vascular system

>  <ActivityOutcome_CPDBAS_Mouse>
active

>  <ActivityOutcome_CPDBAS_SingleCellCall>
active

>  <ActivityOutcome_CPDBAS_MultiCellCall>
active

>  <ActivityOutcome_CPDBAS_MultiCellCall_Details>
multisite active; multisex active; multispecies active

>  <Note_CPDBAS>
Rat added v2a; Mouse added v2a; TargetSites_Rat modified v3a; ChemicalName modified v5a; TD50_Rat modified v5a; TD50_Mouse modified v5a; TargetSites_Mouse_Female modified v5a

>  <NTP_TechnicalReport>
TR 467

>  <ChemicalPage_URL>
http://potency.berkeley.edu/chempages/CHLOROPRENE%20(%3E96%25%20CHLOROPRENE).html

$$$$



  5  4  0  0  0  0  0  0  0  0999 V2000
    2.2415   -0.6520    0.0000 C   0  0  0  0  0  0  0  0  0  0  0  0
    1.1191    0.0000    0.0000 C   0  0  0  0  0  0  0  0  0  0  0  0
    3.3606    0.0000    0.0000 C   0  0  0  0  0  0  0  0  0  0  0  0
    0.0000   -0.6520    0.0000 C   0  0  0  0  0  0  0  0  0  0  0  0
    2.2415   -2.0836    0.0000 Cl  0  0  0  0  0  0  0  0  0  0  0  0
  1  2  1  0  0  0  0
  1  3  2  0  0  0  0
  1  5  1  0  0  0  0
  2  4  2  0  0  0  0
M  END
>  <DSSTox_RID>
40779

>  <DSSTox_CID>
316

>  <DSSTox_Generic_SID>
40226

>  <DSSTox_FileID>
326_CPDBAS_v5d

>  <STRUCTURE_Formula>
C4H5Cl

>  <STRUCTURE_MolecularWeight>
88.5355

>  <STRUCTURE_ChemicalType>
defined organic

>  <STRUCTURE_TestedForm_DefinedOrganic>
parent

>  <STRUCTURE_Shown>
tested chemical

>  <TestSubstance_ChemicalName>
Chloroprene (99.6% chloroprene)

>  <TestSubstance_CASRN>
126-99-8

>  <TestSubstance_Description>
single chemical compound

>  <STRUCTURE_ChemicalName_IUPAC>
2-chlorobuta-1,3-diene

>  <STRUCTURE_SMILES>
C=C(Cl)C=C

>  <STRUCTURE_Parent_SMILES>
C=C(Cl)C=C

>  <STRUCTURE_InChI>
InChI=1/C4H5Cl/c1-3-4(2)5/h3H,1-2H2

>  <STRUCTURE_InChIKey>
YACLQRRMGMJLJV-UHFFFAOYAQ

>  <StudyType>
Carcinogenicity

>  <Endpoint>
TD50; Tumor Target Sites

>  <Species>
rat; hamster

>  <ActivityOutcome_CPDBAS_Mutagenicity>
inactive

>  <ActivityScore_CPDBAS_Rat>
0

>  <TD50_Rat_Note>
no positive results

>  <TargetSites_Rat_Male>
no positive results

>  <TargetSites_Rat_Female>
no positive results

>  <ActivityOutcome_CPDBAS_Rat>
inactive

>  <ActivityScore_CPDBAS_Hamster>
0

>  <TD50_Hamster_Note>
no positive results

>  <TargetSites_Hamster_Male>
no positive results

>  <TargetSites_Hamster_Female>
no positive results

>  <ActivityOutcome_CPDBAS_Hamster>
inactive

>  <ActivityOutcome_CPDBAS_SingleCellCall>
inactive

>  <ActivityOutcome_CPDBAS_MultiCellCall>
inactive

>  <ActivityOutcome_CPDBAS_MultiCellCall_Details>
multisex inactive; multispecies inactive

>  <Note_CPDBAS>
Rat added v5a; Hamster added v5a; Mutagenicity_SAL_CPDB added v5a; chemical added v5a

>  <ChemicalPage_URL>
http://potency.berkeley.edu/chempages/CHLOROPRENE%20(99.6%25%20CHLOROPRENE).html

$$$$



  5  4  0  0  0  0  0  0  0  0999 V2000
    3.4567   -1.9945    0.0000 C   0  0  0  0  0  0  0  0  0  0  0  0
    2.3056   -1.3308    0.0000 C   0  0  3  0  0  0  0  0  0  0  0  0
    1.1511   -1.9945    0.0000 C   0  0  0  0  0  0  0  0  0  0  0  0
    0.0000   -1.3308    0.0000 O   0  0  0  0  0  0  0  0  0  0  0  0
    2.3056    0.0000    0.0000 Cl  0  0  0  0  0  0  0  0  0  0  0  0
  1  2  1  0  0  0  0
  2  3  1  0  0  0  0
  2  5  1  0  0  0  0
  3  4  2  0  0  0  0
M  END
>  <DSSTox_RID>
20317

>  <DSSTox_CID>
317

>  <DSSTox_Generic_SID>
20317

>  <DSSTox_FileID>
327_CPDBAS_v5d

>  <STRUCTURE_Formula>
C3H5ClO

>  <STRUCTURE_MolecularWeight>
92.5249

>  <STRUCTURE_ChemicalType>
defined organic

>  <STRUCTURE_TestedForm_DefinedOrganic>
parent

>  <STRUCTURE_Shown>
tested chemical

>  <TestSubstance_ChemicalName>
2-Chloropropanal

>  <TestSubstance_CASRN>
683-50-1

>  <TestSubstance_Description>
single chemical compound

>  <STRUCTURE_ChemicalName_IUPAC>
2-chloropropanal

>  <STRUCTURE_SMILES>
CC(C=O)Cl

>  <STRUCTURE_Parent_SMILES>
CC(C=O)Cl

>  <STRUCTURE_InChI>
InChI=1/C3H5ClO/c1-3(4)2-5/h2-3H,1H3

>  <STRUCTURE_InChIKey>
UAARVZGODBESIF-UHFFFAOYAD

>  <StudyType>
Carcinogenicity

>  <Endpoint>
TD50; Tumor Target Sites

>  <Species>
mouse

>  <TD50_Mouse_mg>
12.9

>  <TD50_Mouse_mmol>
0.139

>  <ActivityScore_CPDBAS_Mouse>
38

>  <TargetSites_Mouse_Male>
no positive results

>  <TargetSites_Mouse_Female>
stomach

>  <ActivityOutcome_CPDBAS_Mouse>
active

>  <ActivityOutcome_CPDBAS_SingleCellCall>
active

>  <ChemicalPage_URL>
http://potency.berkeley.edu/chempages/2-CHLOROPROPANAL.html

$$$$



  7  6  0  0  0  0  0  0  0  0999 V2000
    1.3307   -1.3307    0.0000 C   0  0  0  0  0  0  0  0  0  0  0  0
    1.3307   -2.6614    0.0000 C   0  0  3  0  0  0  0  0  0  0  0  0
    0.1759   -3.3184    0.0000 Cl  0  0  0  0  0  0  0  0  0  0  0  0
    2.6614   -1.3307    0.0000 F   0  0  0  0  0  0  0  0  0  0  0  0
    0.0000   -1.3307    0.0000 F   0  0  0  0  0  0  0  0  0  0  0  0
    1.3307    0.0000    0.0000 F   0  0  0  0  0  0  0  0  0  0  0  0
    2.4855   -3.3184    0.0000 F   0  0  0  0  0  0  0  0  0  0  0  0
  1  2  1  0  0  0  0
  1  4  1  0  0  0  0
  1  5  1  0  0  0  0
  1  6  1  0  0  0  0
  2  3  1  0  0  0  0
  2  7  1  0  0  0  0
M  END
>  <DSSTox_RID>
40780

>  <DSSTox_CID>
9245

>  <DSSTox_Generic_SID>
29245

>  <DSSTox_FileID>
329_CPDBAS_v5d

>  <STRUCTURE_Formula>
C2HClF4

>  <STRUCTURE_MolecularWeight>
136.476

>  <STRUCTURE_ChemicalType>
defined organic

>  <STRUCTURE_TestedForm_DefinedOrganic>
parent

>  <STRUCTURE_Shown>
tested chemical

>  <TestSubstance_ChemicalName>
Chlorotetrafluoroethane

>  <TestSubstance_CASRN>
2837-89-0

>  <TestSubstance_Description>
single chemical compound

>  <STRUCTURE_ChemicalName_IUPAC>
2-chloro-1,1,1,2-tetrafluoroethane

>  <STRUCTURE_SMILES>
ClC(F)C(F)(F)F

>  <STRUCTURE_Parent_SMILES>
ClC(F)C(F)(F)F

>  <STRUCTURE_InChI>
InChI=1/C2HClF4/c3-1(4)2(5,6)7/h1H

>  <STRUCTURE_InChIKey>
BOUGCJDAQLKBQH-UHFFFAOYAT

>  <StudyType>
Carcinogenicity

>  <Endpoint>
TD50; Tumor Target Sites

>  <Species>
rat

>  <ActivityScore_CPDBAS_Rat>
0

>  <TD50_Rat_Note>
no positive results

>  <TargetSites_Rat_Female>
no positive results

>  <ActivityOutcome_CPDBAS_Rat>
inactive

>  <ActivityOutcome_CPDBAS_SingleCellCall>
inactive

>  <Note_CPDBAS>
Rat added v5a; chemical added v5a

>  <ChemicalPage_URL>
http://potency.berkeley.edu/chempages/CHLOROTETRAFLUOROETHANE.html

$$$$



 14 14  0  0  0  0  0  0  0  0999 V2000
    3.9898   -1.1504    0.0000 Cl  0  0  0  0  0  0  0  0  0  0  0  0
    3.3248   -2.3008    0.0000 C   0  0  0  0  0  0  0  0  0  0  0  0
    3.9898   -3.4578    0.0000 C   0  0  0  0  0  0  0  0  0  0  0  0
    3.3248   -4.6082    0.0000 C   0  0  0  0  0  0  0  0  0  0  0  0
    1.9949   -4.6082    0.0000 C   0  0  0  0  0  0  0  0  0  0  0  0
    1.3299   -3.4578    0.0000 C   0  0  0  0  0  0  0  0  0  0  0  0
    1.9949   -2.3008    0.0000 C   0  0  0  0  0  0  0  0  0  0  0  0
    1.3299   -1.1504    0.0000 C   0  0  0  0  0  0  0  0  0  0  0  0
    0.6650    0.0000    0.0000 N   0  0  0  0  0  0  0  0  0  0  0  0
    0.0000   -3.4578    0.0000 Cl  0  0  0  0  0  0  0  0  0  0  0  0
    1.3299   -5.7586    0.0000 Cl  0  0  0  0  0  0  0  0  0  0  0  0
    3.9898   -5.7586    0.0000 Cl  0  0  0  0  0  0  0  0  0  0  0  0
    5.3197   -3.4578    0.0000 C   0  0  0  0  0  0  0  0  0  0  0  0
    6.6497   -3.4578    0.0000 N   0  0  0  0  0  0  0  0  0  0  0  0
  1  2  1  0  0  0  0
  2  3  2  0  0  0  0
  2  7  1  0  0  0  0
  3  4  1  0  0  0  0
  3 13  1  0  0  0  0
  4  5  2  0  0  0  0
  4 12  1  0  0  0  0
  5  6  1  0  0  0  0
  5 11  1  0  0  0  0
  6  7  2  0  0  0  0
  6 10  1  0  0  0  0
  7  8  1  0  0  0  0
  8  9  3  0  0  0  0
 13 14  3  0  0  0  0
M  END
>  <DSSTox_RID>
20319

>  <DSSTox_CID>
319

>  <DSSTox_Generic_SID>
20319

>  <DSSTox_FileID>
330_CPDBAS_v5d

>  <STRUCTURE_Formula>
C8Cl4N2

>  <STRUCTURE_MolecularWeight>
265.911

>  <STRUCTURE_ChemicalType>
defined organic

>  <STRUCTURE_TestedForm_DefinedOrganic>
parent

>  <STRUCTURE_Shown>
tested chemical

>  <TestSubstance_ChemicalName>
Chlorothalonil

>  <TestSubstance_CASRN>
1897-45-6

>  <TestSubstance_Description>
single chemical compound

>  <STRUCTURE_ChemicalName_IUPAC>
2,4,5,6-tetrachloroisophthalonitrile

>  <STRUCTURE_SMILES>
ClC1=C(C(=C(C(=C1C#N)Cl)Cl)Cl)C#N

>  <STRUCTURE_Parent_SMILES>
ClC1=C(C(=C(C(=C1C#N)Cl)Cl)Cl)C#N

>  <STRUCTURE_InChI>
InChI=1/C8Cl4N2/c9-5-3(1-13)6(10)8(12)7(11)4(5)2-14

>  <STRUCTURE_InChIKey>
CRQQGFGUEAVUIL-UHFFFAOYAB

>  <StudyType>
Carcinogenicity

>  <Endpoint>
TD50; Tumor Target Sites

>  <Species>
rat; mouse

>  <ActivityOutcome_CPDBAS_Mutagenicity>
inactive

>  <TD50_Rat_mg>
2270

>  <TD50_Rat_mmol>
8.54

>  <ActivityScore_CPDBAS_Rat>
16

>  <TD50_Rat_Note>
TD50 is harmonic mean of more than one positive test

>  <TargetSites_Rat_Male>
kidney

>  <TargetSites_Rat_Female>
kidney

>  <ActivityOutcome_CPDBAS_Rat>
active

>  <ActivityScore_CPDBAS_Mouse>
0

>  <TD50_Mouse_Note>
no positive results

>  <TargetSites_Mouse_Male>
no positive results

>  <TargetSites_Mouse_Female>
no positive results

>  <ActivityOutcome_CPDBAS_Mouse>
inactive

>  <ActivityOutcome_CPDBAS_SingleCellCall>
active

>  <ActivityOutcome_CPDBAS_MultiCellCall>
active

>  <ActivityOutcome_CPDBAS_MultiCellCall_Details>
multisex active

>  <NTP_TechnicalReport>
TR 41

>  <ChemicalPage_URL>
http://potency.berkeley.edu/chempages/CHLOROTHALONIL.html

$$$$



 20 20  0  0  1  0  0  0  0  0999 V2000
    5.9873    0.0000    0.0000 O   0  0  0  0  0  0  0  0  0  0  0  0
    6.6467   -1.1485    0.0000 C   0  0  1  0  0  0  0  0  0  0  0  0
    7.9760   -1.1485    0.0000 O   0  0  0  0  0  0  0  0  0  0  0  0
    8.6460   -2.2971    0.0000 C   0  0  2  0  0  0  0  0  0  0  0  0
    9.9647   -2.2971    0.0000 C   0  0  0  0  0  0  0  0  0  0  0  0
   10.6347   -1.1485    0.0000 O   0  0  0  0  0  0  0  0  0  0  0  0
    7.9760   -3.4563    0.0000 C   0  0  1  0  0  0  0  0  0  0  0  0
    8.6460   -4.6048    0.0000 O   0  0  0  0  0  0  0  0  0  0  0  0
    6.6467   -3.4563    0.0000 C   0  0  2  0  0  0  0  0  0  0  0  0
    5.9873   -4.6048    0.0000 O   0  0  0  0  0  0  0  0  0  0  0  0
    5.9873   -2.2971    0.0000 C   0  0  1  0  0  0  0  0  0  0  0  0
    4.6580   -2.2971    0.0000 N   0  0  0  0  0  0  0  0  0  0  0  0
    3.9880   -3.4563    0.0000 C   0  0  0  0  0  0  0  0  0  0  0  0
    4.6580   -4.6048    0.0000 O   0  0  0  0  0  0  0  0  0  0  0  0
    2.6587   -3.4563    0.0000 N   0  0  0  0  0  0  0  0  0  0  0  0
    1.9887   -2.2971    0.0000 C   0  0  0  0  0  0  0  0  0  0  0  0
    0.6594   -2.2971    0.0000 C   0  0  0  0  0  0  0  0  0  0  0  0
    0.0000   -3.4563    0.0000 Cl  0  0  0  0  0  0  0  0  0  0  0  0
    1.9887   -4.6048    0.0000 N   0  0  0  0  0  0  0  0  0  0  0  0
    0.6594   -4.6048    0.0000 O   0  0  0  0  0  0  0  0  0  0  0  0
  2  1  1  1  0  0  0
  2  3  1  0  0  0  0
  2 11  1  0  0  0  0
  3  4  1  0  0  0  0
  4  5  1  6  0  0  0
  4  7  1  0  0  0  0
  5  6  1  0  0  0  0
  7  8  1  1  0  0  0
  7  9  1  0  0  0  0
  9 10  1  6  0  0  0
  9 11  1  0  0  0  0
 11 12  1  1  0  0  0
 12 13  1  0  0  0  0
 13 14  2  0  0  0  0
 13 15  1  0  0  0  0
 15 16  1  0  0  0  0
 15 19  1  0  0  0  0
 16 17  1  0  0  0  0
 17 18  1  0  0  0  0
 19 20  2  0  0  0  0
M  END
>  <DSSTox_RID>
20320

>  <DSSTox_CID>
320

>  <DSSTox_Generic_SID>
20320

>  <DSSTox_FileID>
331_CPDBAS_v5d

>  <STRUCTURE_Formula>
C9H16ClN3O7

>  <STRUCTURE_MolecularWeight>
313.69224

>  <STRUCTURE_ChemicalType>
defined organic

>  <STRUCTURE_TestedForm_DefinedOrganic>
parent

>  <STRUCTURE_Shown>
tested chemical

>  <TestSubstance_ChemicalName>
Chlorozotocin

>  <TestSubstance_CASRN>
54749-90-5

>  <TestSubstance_Description>
single chemical compound

>  <ChemicalNote>
stereochem

>  <STRUCTURE_ChemicalName_IUPAC>
2-({[(2-chloroethyl)(nitroso)amino]carbonyl}amino)-2-deoxy-alpha-D-glucopyranose

>  <STRUCTURE_SMILES>
O[C@H]1O[C@H](CO)[C@@H](O)[C@H](O)[C@H]1NC(=O)N(CCCl)N=O

>  <STRUCTURE_Parent_SMILES>
O[C@H]1O[C@H](CO)[C@@H](O)[C@H](O)[C@H]1NC(=O)N(CCCl)N=O

>  <STRUCTURE_InChI>
InChI=1/C9H16ClN3O7/c10-1-2-13(12-19)9(18)11-5-7(16)6(15)4(3-14)20-8(5)17/h4-8,14-17H,1-3H2,(H,11,18)/t4-,5-,6-,7-,8+/m1/s1/f/h11H

>  <STRUCTURE_InChIKey>
MYBLAOJMRYYKMS-WOOJMJPXDS

>  <StudyType>
Carcinogenicity

>  <Endpoint>
TD50; Tumor Target Sites

>  <Species>
rat

>  <ActivityOutcome_CPDBAS_Mutagenicity>
active

>  <TD50_Rat_mg>
0.0375

>  <TD50_Rat_mmol>
0.00012

>  <ActivityScore_CPDBAS_Rat>
66

>  <TD50_Rat_Note>
positive test results only by intraperitoneal or intravenous injection; TD50 is harmonic mean of more than one positive test

>  <TargetSites_Rat_Male>
peritoneal cavity

>  <TargetSites_Rat_Female>
peritoneal cavity

>  <ActivityOutcome_CPDBAS_Rat>
active

>  <ActivityOutcome_CPDBAS_SingleCellCall>
active

>  <ActivityOutcome_CPDBAS_MultiCellCall>
active

>  <ActivityOutcome_CPDBAS_MultiCellCall_Details>
multisex active

>  <ChemicalPage_URL>
http://potency.berkeley.edu/chempages/CHLOROZOTOCIN.html

$$$$



 17 17  0  0  0  0  0  0  0  0999 V2000
    7.5733    0.0000    0.0000 O   0  0  0  0  0  0  0  0  0  0  0  0
    6.9058   -1.1510    0.0000 S   0  0  0  0  0  0  0  0  0  0  0  0
    6.2382   -2.3019    0.0000 O   0  0  0  0  0  0  0  0  0  0  0  0
    8.0568   -1.8185    0.0000 C   0  0  0  0  0  0  0  0  0  0  0  0
    9.2077   -1.1510    0.0000 C   0  0  0  0  0  0  0  0  0  0  0  0
   10.3587   -1.8185    0.0000 C   0  0  0  0  0  0  0  0  0  0  0  0
   10.3587   -3.1421    0.0000 C   0  0  0  0  0  0  0  0  0  0  0  0
    9.2077   -3.8097    0.0000 C   0  0  0  0  0  0  0  0  0  0  0  0
    8.0568   -3.1421    0.0000 C   0  0  0  0  0  0  0  0  0  0  0  0
   11.5096   -3.8097    0.0000 Cl  0  0  0  0  0  0  0  0  0  0  0  0
    5.7548   -0.4834    0.0000 N   0  0  0  0  0  0  0  0  0  0  0  0
    4.6039   -1.1510    0.0000 C   0  0  0  0  0  0  0  0  0  0  0  0
    4.6039   -2.4861    0.0000 O   0  0  0  0  0  0  0  0  0  0  0  0
    3.4529   -0.4834    0.0000 N   0  0  0  0  0  0  0  0  0  0  0  0
    2.3019   -1.1510    0.0000 C   0  0  0  0  0  0  0  0  0  0  0  0
    1.1510   -0.4834    0.0000 C   0  0  0  0  0  0  0  0  0  0  0  0
    0.0000   -1.1510    0.0000 C   0  0  0  0  0  0  0  0  0  0  0  0
  1  2  2  0  0  0  0
  2  3  2  0  0  0  0
  2  4  1  0  0  0  0
  2 11  1  0  0  0  0
  4  5  2  0  0  0  0
  4  9  1  0  0  0  0
  5  6  1  0  0  0  0
  6  7  2  0  0  0  0
  7  8  1  0  0  0  0
  7 10  1  0  0  0  0
  8  9  2  0  0  0  0
 11 12  1  0  0  0  0
 12 13  2  0  0  0  0
 12 14  1  0  0  0  0
 14 15  1  0  0  0  0
 15 16  1  0  0  0  0
 16 17  1  0  0  0  0
M  END
>  <DSSTox_RID>
20322

>  <DSSTox_CID>
322

>  <DSSTox_Generic_SID>
20322

>  <DSSTox_FileID>
333_CPDBAS_v5d

>  <STRUCTURE_Formula>
C10H13ClN2O3S

>  <STRUCTURE_MolecularWeight>
276.7398

>  <STRUCTURE_ChemicalType>
defined organic

>  <STRUCTURE_TestedForm_DefinedOrganic>
parent

>  <STRUCTURE_Shown>
tested chemical

>  <TestSubstance_ChemicalName>
Chlorpropamide

>  <TestSubstance_CASRN>
94-20-2

>  <TestSubstance_Description>
single chemical compound

>  <STRUCTURE_ChemicalName_IUPAC>
4-chloro-N-[(propylamino)carbonyl]benzenesulfonamide

>  <STRUCTURE_SMILES>
O=S(=O)(C1=CC=C(C=C1)Cl)NC(=O)NCCC

>  <STRUCTURE_Parent_SMILES>
O=S(=O)(C1=CC=C(C=C1)Cl)NC(=O)NCCC

>  <STRUCTURE_InChI>
InChI=1/C10H13ClN2O3S/c1-2-7-12-10(14)13-17(15,16)9-5-3-8(11)4-6-9/h3-6H,2,7H2,1H3,(H2,12,13,14)/f/h12-13H

>  <STRUCTURE_InChIKey>
RKWGIWYCVPQPMF-BAINRFMOCW

>  <StudyType>
Carcinogenicity

>  <Endpoint>
TD50; Tumor Target Sites

>  <Species>
rat; mouse

>  <ActivityOutcome_CPDBAS_Mutagenicity>
inactive

>  <ActivityScore_CPDBAS_Rat>
0

>  <TD50_Rat_Note>
no positive results

>  <TargetSites_Rat_Male>
no positive results

>  <TargetSites_Rat_Female>
no positive results

>  <ActivityOutcome_CPDBAS_Rat>
inactive

>  <ActivityScore_CPDBAS_Mouse>
0

>  <TD50_Mouse_Note>
no positive results

>  <TargetSites_Mouse_Male>
no positive results

>  <TargetSites_Mouse_Female>
no positive results

>  <ActivityOutcome_CPDBAS_Mouse>
inactive

>  <ActivityOutcome_CPDBAS_SingleCellCall>
inactive

>  <ActivityOutcome_CPDBAS_MultiCellCall>
inactive

>  <ActivityOutcome_CPDBAS_MultiCellCall_Details>
multisex inactive; multispecies inactive

>  <NTP_TechnicalReport>
TR 45

>  <ChemicalPage_URL>
http://potency.berkeley.edu/chempages/CHLORPROPAMIDE.html

$$$$



 18 20  0  0  0  0  0  0  0  0999 V2000
    3.4563   -5.3227    0.0000 O   0  0  0  0  0  0  0  0  0  0  0  0
    3.4563   -3.9955    0.0000 C   0  0  0  0  0  0  0  0  0  0  0  0
    2.3019   -3.3249    0.0000 C   0  0  0  0  0  0  0  0  0  0  0  0
    2.3019   -1.9977    0.0000 C   0  0  0  0  0  0  0  0  0  0  0  0
    1.1544   -1.3341    0.0000 C   0  0  0  0  0  0  0  0  0  0  0  0
    0.0000   -1.9977    0.0000 C   0  0  0  0  0  0  0  0  0  0  0  0
    0.0000   -3.3249    0.0000 C   0  0  0  0  0  0  0  0  0  0  0  0
    1.1544   -3.9955    0.0000 C   0  0  0  0  0  0  0  0  0  0  0  0
    1.1544   -5.3227    0.0000 O   0  0  0  0  0  0  0  0  0  0  0  0
    3.4563   -1.3341    0.0000 C   0  0  0  0  0  0  0  0  0  0  0  0
    3.4563    0.0000    0.0000 O   0  0  0  0  0  0  0  0  0  0  0  0
    4.6107   -1.9977    0.0000 C   0  0  0  0  0  0  0  0  0  0  0  0
    5.7582   -1.3341    0.0000 C   0  0  0  0  0  0  0  0  0  0  0  0
    6.9126   -1.9977    0.0000 C   0  0  0  0  0  0  0  0  0  0  0  0
    6.9126   -3.3249    0.0000 C   0  0  0  0  0  0  0  0  0  0  0  0
    5.7582   -3.9955    0.0000 C   0  0  0  0  0  0  0  0  0  0  0  0
    4.6107   -3.3249    0.0000 C   0  0  0  0  0  0  0  0  0  0  0  0
    5.7582   -5.3227    0.0000 O   0  0  0  0  0  0  0  0  0  0  0  0
  1  2  2  0  0  0  0
  2  3  1  0  0  0  0
  2 17  1  0  0  0  0
  3  4  2  0  0  0  0
  3  8  1  0  0  0  0
  4  5  1  0  0  0  0
  4 10  1  0  0  0  0
  5  6  2  0  0  0  0
  6  7  1  0  0  0  0
  7  8  2  0  0  0  0
  8  9  1  0  0  0  0
 10 11  2  0  0  0  0
 10 12  1  0  0  0  0
 12 13  2  0  0  0  0
 12 17  1  0  0  0  0
 13 14  1  0  0  0  0
 14 15  2  0  0  0  0
 15 16  1  0  0  0  0
 16 17  2  0  0  0  0
 16 18  1  0  0  0  0
M  END
>  <DSSTox_RID>
20328

>  <DSSTox_CID>
328

>  <DSSTox_Generic_SID>
20328

>  <DSSTox_FileID>
339_CPDBAS_v5d

>  <STRUCTURE_Formula>
C14H8O4

>  <STRUCTURE_MolecularWeight>
240.2109

>  <STRUCTURE_ChemicalType>
defined organic

>  <STRUCTURE_TestedForm_DefinedOrganic>
parent

>  <STRUCTURE_Shown>
tested chemical

>  <TestSubstance_ChemicalName>
Chrysazin

>  <TestSubstance_CASRN>
117-10-2

>  <TestSubstance_Description>
single chemical compound

>  <STRUCTURE_ChemicalName_IUPAC>
1,8-dihydroxy-9,10-anthraquinone

>  <STRUCTURE_SMILES>
O=C1C2=C(C=CC=C2O)C(=O)C3=CC=CC(=C13)O

>  <STRUCTURE_Parent_SMILES>
O=C1C2=C(C=CC=C2O)C(=O)C3=CC=CC(=C13)O

>  <STRUCTURE_InChI>
InChI=1/C14H8O4/c15-9-5-1-3-7-11(9)14(18)12-8(13(7)17)4-2-6-10(12)16/h1-6,15-16H

>  <STRUCTURE_InChIKey>
QBPFLULOKWLNNW-UHFFFAOYAR

>  <StudyType>
Carcinogenicity

>  <Endpoint>
TD50; Tumor Target Sites

>  <Species>
rat; mouse

>  <ActivityOutcome_CPDBAS_Mutagenicity>
active

>  <TD50_Rat_mg>
245

>  <TD50_Rat_mmol>
1.02

>  <ActivityScore_CPDBAS_Rat>
26

>  <TargetSites_Rat_Male>
large intestine

>  <ActivityOutcome_CPDBAS_Rat>
active

>  <TD50_Mouse_mg>
201

>  <TD50_Mouse_mmol>
0.837

>  <ActivityScore_CPDBAS_Mouse>
29

>  <TargetSites_Mouse_Male>
liver

>  <ActivityOutcome_CPDBAS_Mouse>
active

>  <ActivityOutcome_CPDBAS_SingleCellCall>
active

>  <ActivityOutcome_CPDBAS_MultiCellCall>
active

>  <ActivityOutcome_CPDBAS_MultiCellCall_Details>
multisite active; multispecies active

>  <Note_CPDBAS>
Mutagenicity_SAL_CPDB added v3a

>  <ChemicalPage_URL>
http://potency.berkeley.edu/chempages/CHRYSAZIN.html

$$$$



 17 17  0  0  0  0  0  0  0  0999 V2000
    2.5059   -8.8123    0.0000 C   0  0  0  0  0  0  0  0  0  0  0  0
    3.7901   -8.4677    0.0000 N   0  0  0  0  0  0  0  0  0  0  0  0
    2.1613  -10.0965    0.0000 N   0  0  0  0  0  0  0  0  0  0  0  0
    1.5662   -7.8726    0.0000 N   0  0  0  0  0  0  0  0  0  0  0  0
    4.7298   -9.4074    0.0000 C   0  0  0  0  0  0  0  0  0  0  0  0
    5.6695  -10.3471    0.0000 N   0  0  0  0  0  0  0  0  0  0  0  0
    0.8771  -10.4411    0.0000 C   0  0  0  0  0  0  0  0  0  0  0  0
    1.9107   -6.5883    0.0000 C   0  0  0  0  0  0  0  0  0  0  0  0
    0.9710   -5.6486    0.0000 C   0  0  0  0  0  0  0  0  0  0  0  0
    1.3156   -4.3644    0.0000 S   0  0  0  0  0  0  0  0  0  0  0  0
    0.3759   -3.4142    0.0000 C   0  0  0  0  0  0  0  0  0  0  0  0
    0.0000   -1.0754    0.0000 N   0  0  0  0  0  0  0  0  0  0  0  0
    2.0465   -0.4072    0.0000 N   0  0  0  0  0  0  0  0  0  0  0  0
    0.7831    0.0000    0.0000 C   0  0  0  0  0  0  0  0  0  0  0  0
    0.7831   -2.1509    0.0000 C   0  0  0  0  0  0  0  0  0  0  0  0
    2.0465   -1.7437    0.0000 C   0  0  0  0  0  0  0  0  0  0  0  0
    3.1219   -2.5267    0.0000 C   0  0  0  0  0  0  0  0  0  0  0  0
  1  2  2  0  0  0  0
  1  3  1  0  0  0  0
  1  4  1  0  0  0  0
  2  5  1  0  0  0  0
  3  7  1  0  0  0  0
  4  8  1  0  0  0  0
  5  6  3  0  0  0  0
  8  9  1  0  0  0  0
  9 10  1  0  0  0  0
 10 11  1  0  0  0  0
 11 15  1  0  0  0  0
 12 14  2  0  0  0  0
 12 15  1  0  0  0  0
 13 14  1  0  0  0  0
 13 16  1  0  0  0  0
 15 16  2  0  0  0  0
 16 17  1  0  0  0  0
M  END
>  <DSSTox_RID>
20329

>  <DSSTox_CID>
329

>  <DSSTox_Generic_SID>
20329

>  <DSSTox_FileID>
340_CPDBAS_v5d

>  <STRUCTURE_Formula>
C10H16N6S

>  <STRUCTURE_MolecularWeight>
252.3392

>  <STRUCTURE_ChemicalType>
defined organic

>  <STRUCTURE_TestedForm_DefinedOrganic>
parent

>  <STRUCTURE_Shown>
tested chemical

>  <TestSubstance_ChemicalName>
Cimetidine

>  <TestSubstance_CASRN>
51481-61-9

>  <TestSubstance_Description>
single chemical compound

>  <ChemicalNote>
tautomers

>  <STRUCTURE_ChemicalName_IUPAC>
2-cyano-1-methyl-3-(2-{[(5-methyl-1H-imidazol-4-yl)methyl]thio}ethyl)guanidine

>  <STRUCTURE_SMILES>
C1(CSCCNC(NC)=NC#N)=C(C)NC=N1

>  <STRUCTURE_Parent_SMILES>
C1(CSCCNC(NC)=NC#N)=C(C)NC=N1

>  <STRUCTURE_InChI>
InChI=1/C10H16N6S/c1-8-9(16-7-15-8)5-17-4-3-13-10(12-2)14-6-11/h7H,3-5H2,1-2H3,(H,15,16)(H2,12,13,14)/f/h12-13,15H/b14-10+

>  <STRUCTURE_InChIKey>
AQIXAKUUQRKLND-CMEUZDGQDL

>  <StudyType>
Carcinogenicity

>  <Endpoint>
TD50; Tumor Target Sites

>  <Species>
rat; mouse

>  <ActivityScore_CPDBAS_Rat>
0

>  <TD50_Rat_Note>
no positive results

>  <TargetSites_Rat_Male>
no positive results

>  <TargetSites_Rat_Female>
no positive results

>  <ActivityOutcome_CPDBAS_Rat>
inactive

>  <ActivityScore_CPDBAS_Mouse>
0

>  <TD50_Mouse_Note>
no positive results

>  <TargetSites_Mouse_Female>
no positive results

>  <ActivityOutcome_CPDBAS_Mouse>
inactive

>  <ActivityOutcome_CPDBAS_SingleCellCall>
inactive

>  <ActivityOutcome_CPDBAS_MultiCellCall>
inactive

>  <ActivityOutcome_CPDBAS_MultiCellCall_Details>
multisex inactive; multispecies inactive

>  <Note_CPDBAS>
TD50_Rat added v3a; TargetSites_Rat added v3a

>  <ChemicalPage_URL>
http://potency.berkeley.edu/chempages/CIMETIDINE.html

$$$$



 10 10  0  0  0  0  0  0  0  0999 V2000
    6.9112   -1.9973    0.0000 O   0  0  0  0  0  0  0  0  0  0  0  0
    5.7570   -2.6608    0.0000 C   0  0  0  0  0  0  0  0  0  0  0  0
    4.6098   -1.9973    0.0000 C   0  0  0  0  0  0  0  0  0  0  0  0
    3.4556   -2.6608    0.0000 C   0  0  0  0  0  0  0  0  0  0  0  0
    2.3014   -1.9973    0.0000 C   0  0  0  0  0  0  0  0  0  0  0  0
    2.3014   -0.6635    0.0000 C   0  0  0  0  0  0  0  0  0  0  0  0
    1.1542    0.0000    0.0000 C   0  0  0  0  0  0  0  0  0  0  0  0
    0.0000   -0.6635    0.0000 C   0  0  0  0  0  0  0  0  0  0  0  0
    0.0000   -1.9973    0.0000 C   0  0  0  0  0  0  0  0  0  0  0  0
    1.1542   -2.6608    0.0000 C   0  0  0  0  0  0  0  0  0  0  0  0
  1  2  2  0  0  0  0
  2  3  1  0  0  0  0
  3  4  2  0  0  0  0
  4  5  1  0  0  0  0
  5  6  2  0  0  0  0
  5 10  1  0  0  0  0
  6  7  1  0  0  0  0
  7  8  2  0  0  0  0
  8  9  1  0  0  0  0
  9 10  2  0  0  0  0
M  END
>  <DSSTox_RID>
40781

>  <DSSTox_CID>
4834

>  <DSSTox_Generic_SID>
24834

>  <DSSTox_FileID>
341_CPDBAS_v5d

>  <STRUCTURE_Formula>
C9H8O

>  <STRUCTURE_MolecularWeight>
132.1592

>  <STRUCTURE_ChemicalType>
defined organic

>  <STRUCTURE_TestedForm_DefinedOrganic>
parent

>  <STRUCTURE_Shown>
tested chemical

>  <TestSubstance_ChemicalName>
trans-Cinnamaldehyde

>  <TestSubstance_CASRN>
14371-10-9

>  <TestSubstance_Description>
single chemical compound

>  <ChemicalNote>
stereochem

>  <STRUCTURE_ChemicalName_IUPAC>
(2E)-3-phenylacrylaldehyde

>  <STRUCTURE_SMILES>
O=C/C=C/C1=CC=CC=C1

>  <STRUCTURE_Parent_SMILES>
O=C/C=C/C1=CC=CC=C1

>  <STRUCTURE_InChI>
InChI=1/C9H8O/c10-8-4-7-9-5-2-1-3-6-9/h1-8H/b7-4+

>  <STRUCTURE_InChIKey>
KJPRLNWUNMBNBZ-QPJJXVBHBH

>  <StudyType>
Carcinogenicity

>  <Endpoint>
TD50; Tumor Target Sites

>  <Species>
rat; mouse

>  <ActivityOutcome_CPDBAS_Mutagenicity>
inactive

>  <ActivityScore_CPDBAS_Rat>
0

>  <TD50_Rat_Note>
no positive results

>  <TargetSites_Rat_Male>
no positive results

>  <TargetSites_Rat_Female>
no positive results

>  <ActivityOutcome_CPDBAS_Rat>
inactive

>  <ActivityScore_CPDBAS_Mouse>
0

>  <TD50_Mouse_Note>
no positive results

>  <TargetSites_Mouse_Male>
no positive results

>  <TargetSites_Mouse_Female>
no positive results

>  <ActivityOutcome_CPDBAS_Mouse>
inactive

>  <ActivityOutcome_CPDBAS_SingleCellCall>
inactive

>  <ActivityOutcome_CPDBAS_MultiCellCall>
inactive

>  <ActivityOutcome_CPDBAS_MultiCellCall_Details>
multisex inactive; multispecies inactive

>  <Note_CPDBAS>
Rat added v5a; Mouse added v5a; Mutagenicity_SAL_CPDB added v5a; chemical added v5a

>  <ChemicalPage_URL>
http://potency.berkeley.edu/chempages/trans-CINNAMALDEHYDE.html

$$$$



 18 19  0  0  0  0  0  0  0  0999 V2000
   10.7602   -3.1958    0.0000 Cl  0  0  0  0  0  0  0  0  0  0  0  0
    9.4474   -2.9698    0.0000 C   0  0  0  0  0  0  0  0  0  0  0  0
    8.2961   -2.3027    0.0000 C   0  0  3  0  0  0  0  0  0  0  0  0
    6.9618   -2.3027    0.0000 C   0  0  0  0  0  0  0  0  0  0  0  0
    6.2947   -3.4540    0.0000 C   0  0  0  0  0  0  0  0  0  0  0  0
    4.9712   -3.4540    0.0000 C   0  0  0  0  0  0  0  0  0  0  0  0
    4.3041   -2.3027    0.0000 C   0  0  0  0  0  0  0  0  0  0  0  0
    4.9712   -1.1513    0.0000 C   0  0  0  0  0  0  0  0  0  0  0  0
    6.2947   -1.1513    0.0000 C   0  0  0  0  0  0  0  0  0  0  0  0
    2.9698   -2.3027    0.0000 O   0  0  0  0  0  0  0  0  0  0  0  0
    2.3027   -1.1513    0.0000 C   0  0  0  0  0  0  0  0  0  0  0  0
    1.1513   -1.8185    0.0000 C   0  0  0  0  0  0  0  0  0  0  0  0
    1.1513   -3.1420    0.0000 O   0  0  0  0  0  0  0  0  0  0  0  0
    0.0000   -1.1513    0.0000 O   0  0  0  0  0  0  0  0  0  0  0  0
    1.6355    0.0000    0.0000 C   0  0  0  0  0  0  0  0  0  0  0  0
    3.4540   -0.4842    0.0000 C   0  0  0  0  0  0  0  0  0  0  0  0
    9.4474   -1.6355    0.0000 C   0  0  0  0  0  0  0  0  0  0  0  0
    8.9955   -4.2180    0.0000 Cl  0  0  0  0  0  0  0  0  0  0  0  0
  1  2  1  0  0  0  0
  2  3  1  0  0  0  0
  2 17  1  0  0  0  0
  2 18  1  0  0  0  0
  3  4  1  0  0  0  0
  3 17  1  0  0  0  0
  4  5  2  0  0  0  0
  4  9  1  0  0  0  0
  5  6  1  0  0  0  0
  6  7  2  0  0  0  0
  7  8  1  0  0  0  0
  7 10  1  0  0  0  0
  8  9  2  0  0  0  0
 10 11  1  0  0  0  0
 11 12  1  0  0  0  0
 11 15  1  0  0  0  0
 11 16  1  0  0  0  0
 12 13  2  0  0  0  0
 12 14  1  0  0  0  0
M  END
>  <DSSTox_RID>
20331

>  <DSSTox_CID>
331

>  <DSSTox_Generic_SID>
20331

>  <DSSTox_FileID>
343_CPDBAS_v5d

>  <STRUCTURE_Formula>
C13H14Cl2O3

>  <STRUCTURE_MolecularWeight>
289.1545

>  <STRUCTURE_ChemicalType>
defined organic

>  <STRUCTURE_TestedForm_DefinedOrganic>
parent

>  <STRUCTURE_Shown>
tested chemical

>  <TestSubstance_ChemicalName>
Ciprofibrate

>  <TestSubstance_CASRN>
52214-84-3

>  <TestSubstance_Description>
single chemical compound

>  <STRUCTURE_ChemicalName_IUPAC>
2-{[4-(2,2-dichlorocyclopropyl)phenyl]oxy}-2-methylpropanoic acid

>  <STRUCTURE_SMILES>
ClC1(C(C2=CC=C(C=C2)OC(C(=O)O)(C)C)C1)Cl

>  <STRUCTURE_Parent_SMILES>
ClC1(C(C2=CC=C(C=C2)OC(C(=O)O)(C)C)C1)Cl

>  <STRUCTURE_InChI>
InChI=1/C13H14Cl2O3/c1-12(2,11(16)17)18-9-5-3-8(4-6-9)10-7-13(10,14)15/h3-6,10H,7H2,1-2H3,(H,16,17)/f/h16H

>  <STRUCTURE_InChIKey>
KPSRODZRAIWAKH-WYUMXYHSCN

>  <StudyType>
Carcinogenicity

>  <Endpoint>
TD50; Tumor Target Sites

>  <Species>
rat; mouse

>  <TD50_Rat_mg>
1.97

>  <TD50_Rat_mmol>
0.00681

>  <ActivityScore_CPDBAS_Rat>
48

>  <TD50_Rat_Note>
TD50 is harmonic mean of more than one positive test; harmonic mean of TD50 includes a value for upper 99% confidence limit from study with 100% tumor incidence but no lifetable; greater than ten-fold variation among TD50 values for positive results

>  <TargetSites_Rat_Male>
liver; stomach

>  <TargetSites_Rat_Female>
stomach

>  <ActivityOutcome_CPDBAS_Rat>
active

>  <TD50_Mouse_mg>
6.2

>  <TD50_Mouse_mmol>
0.0214

>  <ActivityScore_CPDBAS_Mouse>
47

>  <TD50_Mouse_Note>
TD50 is harmonic mean of more than one positive test

>  <TargetSites_Mouse_Male>
liver

>  <ActivityOutcome_CPDBAS_Mouse>
active

>  <ActivityOutcome_CPDBAS_SingleCellCall>
active

>  <ActivityOutcome_CPDBAS_MultiCellCall>
active

>  <ActivityOutcome_CPDBAS_MultiCellCall_Details>
multisite active; multisex active; multispecies active

>  <Note_CPDBAS>
TD50_Rat modified v2a; TD50_Rat modified v3a; TD50_Rat modified v5a

>  <ChemicalPage_URL>
http://potency.berkeley.edu/chempages/CIPROFIBRATE.html

$$$$



 13 12  0  0  0  0  0  0  0  0999 V2000
    0.9738   -1.9926    0.0000 O   0  0  0  0  0  0  0  0  0  0  0  0
    2.3021   -1.9926    0.0000 C   0  0  0  0  0  0  0  0  0  0  0  0
    2.3021   -3.3265    0.0000 C   0  0  0  0  0  0  0  0  0  0  0  0
    1.1539   -3.9907    0.0000 C   0  0  0  0  0  0  0  0  0  0  0  0
    1.1539   -5.3191    0.0000 O   0  0  0  0  0  0  0  0  0  0  0  0
    0.0000   -3.3265    0.0000 O   0  0  0  0  0  0  0  0  0  0  0  0
    3.6361   -1.9926    0.0000 C   0  0  0  0  0  0  0  0  0  0  0  0
    4.3003   -3.1464    0.0000 C   0  0  0  0  0  0  0  0  0  0  0  0
    3.6361   -4.3003    0.0000 O   0  0  0  0  0  0  0  0  0  0  0  0
    5.6287   -3.1464    0.0000 O   0  0  0  0  0  0  0  0  0  0  0  0
    2.3021   -0.6642    0.0000 C   0  0  0  0  0  0  0  0  0  0  0  0
    1.1539    0.0000    0.0000 O   0  0  0  0  0  0  0  0  0  0  0  0
    3.4560    0.0000    0.0000 O   0  0  0  0  0  0  0  0  0  0  0  0
  1  2  1  0  0  0  0
  2  3  1  0  0  0  0
  2  7  1  0  0  0  0
  2 11  1  0  0  0  0
  3  4  1  0  0  0  0
  4  5  2  0  0  0  0
  4  6  1  0  0  0  0
  7  8  1  0  0  0  0
  8  9  2  0  0  0  0
  8 10  1  0  0  0  0
 11 12  2  0  0  0  0
 11 13  1  0  0  0  0
M  END
>  <DSSTox_RID>
20332

>  <DSSTox_CID>
332

>  <DSSTox_Generic_SID>
20332

>  <DSSTox_FileID>
345_CPDBAS_v5d

>  <STRUCTURE_Formula>
C6H8O7

>  <STRUCTURE_MolecularWeight>
192.1235

>  <STRUCTURE_ChemicalType>
defined organic

>  <STRUCTURE_TestedForm_DefinedOrganic>
parent

>  <STRUCTURE_Shown>
tested chemical

>  <TestSubstance_ChemicalName>
Citric acid

>  <TestSubstance_CASRN>
77-92-9

>  <TestSubstance_Description>
single chemical compound

>  <STRUCTURE_ChemicalName_IUPAC>
2-hydroxypropane-1,2,3-tricarboxylic acid

>  <STRUCTURE_SMILES>
OC(CC(=O)O)(CC(=O)O)C(=O)O

>  <STRUCTURE_Parent_SMILES>
OC(CC(=O)O)(CC(=O)O)C(=O)O

>  <STRUCTURE_InChI>
InChI=1/C6H8O7/c7-3(8)1-6(13,5(11)12)2-4(9)10/h13H,1-2H2,(H,7,8)(H,9,10)(H,11,12)/f/h7,9,11H

>  <STRUCTURE_InChIKey>
KRKNYBCHXYNGOX-CUNNJMNPCP

>  <StudyType>
Carcinogenicity

>  <Endpoint>
TD50; Tumor Target Sites

>  <Species>
rat

>  <ActivityScore_CPDBAS_Rat>
0

>  <TD50_Rat_Note>
no positive results

>  <TargetSites_Rat_Male>
no positive results

>  <ActivityOutcome_CPDBAS_Rat>
inactive

>  <ActivityOutcome_CPDBAS_SingleCellCall>
inactive

>  <ChemicalPage_URL>
http://potency.berkeley.edu/chempages/CITRIC%20ACID.html

$$$$



 18 19  0  0  1  0  0  0  0  0999 V2000
    4.6531    0.0000    0.0000 C   0  0  0  0  0  0  0  0  0  0  0  0
    3.9906   -1.1493    0.0000 C   0  0  0  0  0  0  0  0  0  0  0  0
    4.6531   -2.2986    0.0000 C   0  0  0  0  0  0  0  0  0  0  0  0
    3.9906   -3.4559    0.0000 C   0  0  0  0  0  0  0  0  0  0  0  0
    4.6531   -4.6052    0.0000 C   0  0  0  0  0  0  0  0  0  0  0  0
    5.9859   -4.6052    0.0000 O   0  0  0  0  0  0  0  0  0  0  0  0
    6.6484   -3.4559    0.0000 C   0  0  2  0  0  0  0  0  0  0  0  0
    5.9859   -2.2986    0.0000 C   0  0  2  0  0  0  0  0  0  0  0  0
    6.6484   -1.1493    0.0000 C   0  0  0  0  0  0  0  0  0  0  0  0
    7.9813   -3.4559    0.0000 C   0  0  0  0  0  0  0  0  0  0  0  0
    2.6578   -3.4559    0.0000 C   0  0  0  0  0  0  0  0  0  0  0  0
    1.9953   -2.2986    0.0000 C   0  0  0  0  0  0  0  0  0  0  0  0
    2.6578   -1.1493    0.0000 C   0  0  0  0  0  0  0  0  0  0  0  0
    1.9953    0.0000    0.0000 O   0  0  0  0  0  0  0  0  0  0  0  0
    0.6624   -2.2986    0.0000 C   0  0  0  0  0  0  0  0  0  0  0  0
    0.0000   -1.1493    0.0000 O   0  0  0  0  0  0  0  0  0  0  0  0
    0.0000   -3.4559    0.0000 O   0  0  0  0  0  0  0  0  0  0  0  0
    1.9953   -4.6052    0.0000 O   0  0  0  0  0  0  0  0  0  0  0  0
  1  2  1  0  0  0  0
  2  3  2  0  0  0  0
  2 13  1  0  0  0  0
  3  4  1  0  0  0  0
  3  8  1  0  0  0  0
  4  5  2  0  0  0  0
  4 11  1  0  0  0  0
  5  6  1  0  0  0  0
  6  7  1  0  0  0  0
  7  8  1  0  0  0  0
  7 10  1  6  0  0  0
  8  9  1  1  0  0  0
 11 12  2  0  0  0  0
 11 18  1  0  0  0  0
 12 13  1  0  0  0  0
 12 15  1  0  0  0  0
 13 14  2  0  0  0  0
 15 16  2  0  0  0  0
 15 17  1  0  0  0  0
M  END
>  <DSSTox_RID>
20333

>  <DSSTox_CID>
333

>  <DSSTox_Generic_SID>
20333

>  <DSSTox_FileID>
346_CPDBAS_v5d

>  <STRUCTURE_Formula>
C13H14O5

>  <STRUCTURE_MolecularWeight>
250.2506

>  <STRUCTURE_ChemicalType>
defined organic

>  <STRUCTURE_TestedForm_DefinedOrganic>
parent

>  <STRUCTURE_Shown>
tested chemical

>  <TestSubstance_ChemicalName>
Citrinin

>  <TestSubstance_CASRN>
518-75-2

>  <TestSubstance_Description>
single chemical compound

>  <ChemicalNote>
stereochem

>  <STRUCTURE_ChemicalName_IUPAC>
(3S,4R)-8-hydroxy-3,4,5-trimethyl-6-oxo-4,6-dihydro-3H-isochromene-7-carboxylic acid

>  <STRUCTURE_SMILES>
CC1=C2C(=CO[C@H]([C@@H]2C)C)C(=C(C1=O)C(=O)O)O

>  <STRUCTURE_Parent_SMILES>
CC1=C2C(=CO[C@H]([C@@H]2C)C)C(=C(C1=O)C(=O)O)O

>  <STRUCTURE_InChI>
InChI=1/C13H14O5/c1-5-7(3)18-4-8-9(5)6(2)11(14)10(12(8)15)13(16)17/h4-5,7,15H,1-3H3,(H,16,17)/t5-,7-/m0/s1/f/h16H

>  <STRUCTURE_InChIKey>
CQIUKKVOEOPUDV-UUCYCZFVDL

>  <StudyType>
Carcinogenicity

>  <Endpoint>
TD50; Tumor Target Sites

>  <Species>
rat

>  <ActivityOutcome_CPDBAS_Mutagenicity>
inactive

>  <TD50_Rat_mg>
7.48

>  <TD50_Rat_mmol>
0.0299

>  <ActivityScore_CPDBAS_Rat>
41

>  <TD50_Rat_Note>
TD50 value is overestimated as upper 99% confidence limit from study with 100% tumor incidence but no lifetable; TD50 is harmonic mean of more than one positive test; harmonic mean of TD50 includes a value for upper 99% confidence limit from study with 100% tumor incidence but no lifetable

>  <TargetSites_Rat_Male>
kidney

>  <ActivityOutcome_CPDBAS_Rat>
active

>  <ActivityOutcome_CPDBAS_SingleCellCall>
active

>  <Note_CPDBAS>
TD50_Rat_Note modified v5a

>  <ChemicalPage_URL>
http://potency.berkeley.edu/chempages/CITRININ.html

$$$$



 29 31  0  0  1  0  0  0  0  0999 V2000
    3.4246   -6.0145    0.0000 O   0  0  0  0  0  0  0  0  0  0  0  0
    3.3604   -7.6733    0.0000 C   0  0  2  0  0  0  0  0  0  0  0  0
    2.5792   -8.7435    0.0000 C   0  0  0  0  0  0  0  0  0  0  0  0
    3.3604   -9.8030    0.0000 C   0  0  0  0  0  0  0  0  0  0  0  0
    4.6018   -9.3856    0.0000 N   0  3  3  0  0  0  0  0  0  0  0  0
    5.8433   -9.8030    0.0000 C   0  0  0  0  0  0  0  0  0  0  0  0
    6.6138   -8.7435    0.0000 C   0  0  0  0  0  0  0  0  0  0  0  0
    5.8433   -7.6733    0.0000 C   0  0  0  0  0  0  0  0  0  0  0  0
    5.8433   -6.0145    0.0000 C   0  0  0  0  0  0  0  0  0  0  0  0
    6.8385   -5.3617    0.0000 O   0  0  0  0  0  0  0  0  0  0  0  0
    6.8385   -4.0667    0.0000 C   0  0  0  0  0  0  0  0  0  0  0  0
    5.6827   -3.4032    0.0000 C   0  0  2  0  0  0  0  0  0  0  0  0
    4.5590   -4.0667    0.0000 C   0  0  2  0  0  0  0  0  0  0  0  0
    3.4246   -3.4032    0.0000 C   0  0  0  0  0  0  0  0  0  0  0  0
    2.2795   -4.0667    0.0000 C   0  0  0  0  0  0  0  0  0  0  0  0
    2.2795   -5.3617    0.0000 C   0  0  0  0  0  0  0  0  0  0  0  0
    4.6018   -8.0693    0.0000 C   0  0  3  0  0  0  0  0  0  0  0  0
    4.6018   -6.7743    0.0000 O   0  5  0  0  0  0  0  0  0  0  0  0
    4.6018  -10.7019    0.0000 C   0  0  0  0  0  0  0  0  0  0  0  0
    7.9622   -3.4032    0.0000 O   0  0  0  0  0  0  0  0  0  0  0  0
    6.3463   -2.2688    0.0000 O   0  0  0  0  0  0  0  0  0  0  0  0
    5.6827   -1.1451    0.0000 C   0  0  0  0  0  0  0  0  0  0  0  0
    4.3664   -1.1451    0.0000 O   0  0  0  0  0  0  0  0  0  0  0  0
    5.0299   -2.2688    0.0000 C   0  0  0  0  0  0  0  0  0  0  0  0
    4.5590   -5.3617    0.0000 C   0  0  0  0  0  0  0  0  0  0  0  0
    1.1451   -3.4032    0.0000 C   0  0  0  0  0  0  0  0  0  0  0  0
    0.0000   -4.0667    0.0000 C   0  0  0  0  0  0  0  0  0  0  0  0
    1.1451   -6.0145    0.0000 O   0  0  0  0  0  0  0  0  0  0  0  0
    6.3463    0.0000    0.0000 C   0  0  0  0  0  0  0  0  0  0  0  0
  1 16  1  0  0  0  0
  2  1  1  1  0  0  0
  2  3  1  0  0  0  0
  2 17  1  0  0  0  0
  3  4  1  0  0  0  0
  4  5  1  0  0  0  0
  5  6  1  0  0  0  0
  5 17  1  0  0  0  0
  5 19  1  0  0  0  0
  6  7  1  0  0  0  0
  7  8  2  0  0  0  0
  8  9  1  0  0  0  0
  8 17  1  0  0  0  0
  9 10  1  0  0  0  0
 10 11  1  0  0  0  0
 11 12  1  0  0  0  0
 11 20  2  0  0  0  0
 12 13  1  0  0  0  0
 12 24  1  1  0  0  0
 12 21  1  6  0  0  0
 13 14  1  0  0  0  0
 13 25  1  1  0  0  0
 14 15  2  0  0  0  0
 15 16  1  0  0  0  0
 15 26  1  0  0  0  0
 16 28  2  0  0  0  0
 17 18  1  0  0  0  0
 21 22  1  0  0  0  0
 22 29  1  0  0  0  0
 22 23  2  0  0  0  0
 26 27  2  0  0  0  0
M  END
>  <DSSTox_RID>
20334

>  <DSSTox_CID>
334

>  <DSSTox_Generic_SID>
20334

>  <DSSTox_FileID>
347_CPDBAS_v5d

>  <STRUCTURE_Formula>
C21H27NO7

>  <STRUCTURE_MolecularWeight>
405.4416

>  <STRUCTURE_ChemicalType>
defined organic

>  <STRUCTURE_TestedForm_DefinedOrganic>
parent

>  <STRUCTURE_Shown>
tested chemical

>  <TestSubstance_ChemicalName>
Clivorine

>  <TestSubstance_CASRN>
33979-15-6

>  <TestSubstance_Description>
single chemical compound

>  <ChemicalNote>
pyrrolizadine alkaloid, stereochem, tautomers

>  <STRUCTURE_ChemicalName_IUPAC>
(8xi,12S,13S,14Z)-12-(acetyloxy)-4-methyl-11,16-dioxo-14,21-didehydrosenecionan-4-ium-8-olate

>  <STRUCTURE_SMILES>
[O-]C12[C@@H](CC[N+](C)1CC=C2COC([C@](OC(C)=O)(C)[C@@H](C)\C=C3C=C)=O)OC/3=O

>  <STRUCTURE_Parent_SMILES>
[O-]C12[C@@H](CC[N+](C)1CC=C2COC([C@](OC(C)=O)(C)[C@@H](C)\C=C3C=C)=O)OC/3=O

>  <STRUCTURE_InChI>
InChI=1/C21H27NO7/c1-6-15-11-13(2)20(4,29-14(3)23)19(25)27-12-16-7-9-22(5)10-8-17(21(16,22)26)28-18(15)24/h6-7,11,13,17H,1,8-10,12H2,2-5H3/b15-11-/t13-,17+,20-,21?,22?/m0/s1

>  <STRUCTURE_InChIKey>
YEGVHSDONMXATH-LKVOMWJFBN

>  <StudyType>
Carcinogenicity

>  <Endpoint>
TD50; Tumor Target Sites

>  <Species>
rat

>  <TD50_Rat_mg>
0.5

>  <TD50_Rat_mmol>
0.00123

>  <ActivityScore_CPDBAS_Rat>
56

>  <TargetSites_Rat_BothSexes>
liver; vascular system

>  <ActivityOutcome_CPDBAS_Rat>
active

>  <ActivityOutcome_CPDBAS_SingleCellCall>
active

>  <ActivityOutcome_CPDBAS_MultiCellCall>
active

>  <ActivityOutcome_CPDBAS_MultiCellCall_Details>
multisite active

>  <Note_CPDBAS>
structure modified v5b

>  <ChemicalPage_URL>
http://potency.berkeley.edu/chempages/CLIVORINE.html

$$$$



 21 22  0  0  0  0  0  0  0  0999 V2000
   12.5806   -1.3138    0.0000 C   0  0  0  0  0  0  0  0  0  0  0  0
   11.2668   -1.3138    0.0000 C   0  0  0  0  0  0  0  0  0  0  0  0
    9.9397   -1.3138    0.0000 O   0  0  0  0  0  0  0  0  0  0  0  0
    5.3083   -2.4683    0.0000 C   0  0  0  0  0  0  0  0  0  0  0  0
    3.9945   -2.4683    0.0000 C   0  0  0  0  0  0  0  0  0  0  0  0
   13.2574   -0.1592    0.0000 O   0  0  0  0  0  0  0  0  0  0  0  0
    3.3177   -1.3138    0.0000 C   0  0  0  0  0  0  0  0  0  0  0  0
    5.9718   -1.3138    0.0000 C   0  0  0  0  0  0  0  0  0  0  0  0
    3.3177   -3.6229    0.0000 C   0  0  0  0  0  0  0  0  0  0  0  0
    5.9585   -3.6229    0.0000 C   0  0  0  0  0  0  0  0  0  0  0  0
   13.2707   -2.4683    0.0000 O   0  0  0  0  0  0  0  0  0  0  0  0
    9.2762   -2.4683    0.0000 C   0  0  0  0  0  0  0  0  0  0  0  0
    1.3403   -2.4683    0.0000 C   0  0  0  0  0  0  0  0  0  0  0  0
    7.9359   -2.4683    0.0000 C   0  0  0  0  0  0  0  0  0  0  0  0
    1.9906   -1.3138    0.0000 C   0  0  0  0  0  0  0  0  0  0  0  0
    1.9906   -3.6229    0.0000 C   0  0  0  0  0  0  0  0  0  0  0  0
    7.2989   -3.6229    0.0000 C   0  0  0  0  0  0  0  0  0  0  0  0
    7.2989   -1.3138    0.0000 C   0  0  0  0  0  0  0  0  0  0  0  0
    0.0000   -2.4683    0.0000 Cl  0  0  0  0  0  0  0  0  0  0  0  0
   11.2668   -2.6674    0.0000 C   0  0  0  0  0  0  0  0  0  0  0  0
   11.2668    0.0000    0.0000 C   0  0  0  0  0  0  0  0  0  0  0  0
  1  2  1  0  0  0  0
  1  6  2  0  0  0  0
  1 11  1  0  0  0  0
  2  3  1  0  0  0  0
  2 20  1  0  0  0  0
  2 21  1  0  0  0  0
  3 12  1  0  0  0  0
  4  8  2  0  0  0  0
  4  5  1  0  0  0  0
  4 10  1  0  0  0  0
  5  7  1  0  0  0  0
  5  9  2  0  0  0  0
  7 15  2  0  0  0  0
  8 18  1  0  0  0  0
  9 16  1  0  0  0  0
 10 17  2  0  0  0  0
 12 14  1  0  0  0  0
 13 16  2  0  0  0  0
 13 19  1  0  0  0  0
 13 15  1  0  0  0  0
 14 17  1  0  0  0  0
 14 18  2  0  0  0  0
M  END
>  <DSSTox_RID>
20335

>  <DSSTox_CID>
335

>  <DSSTox_Generic_SID>
20335

>  <DSSTox_FileID>
348_CPDBAS_v5d

>  <STRUCTURE_Formula>
C17H17ClO3

>  <STRUCTURE_MolecularWeight>
304.7681

>  <STRUCTURE_ChemicalType>
defined organic

>  <STRUCTURE_TestedForm_DefinedOrganic>
parent

>  <STRUCTURE_Shown>
tested chemical

>  <TestSubstance_ChemicalName>
Clobuzarit

>  <TestSubstance_CASRN>
22494-47-9

>  <TestSubstance_Description>
single chemical compound

>  <STRUCTURE_ChemicalName_IUPAC>
2-{[(4'-chlorobiphenyl-4-yl)methyl]oxy}-2-methylpropanoic acid

>  <STRUCTURE_SMILES>
Clc1ccc(cc1)c2ccc(COC(C)(C)C(O)=O)cc2

>  <STRUCTURE_Parent_SMILES>
Clc1ccc(cc1)c2ccc(COC(C)(C)C(O)=O)cc2

>  <STRUCTURE_InChI>
InChI=1/C17H17ClO3/c1-17(2,16(19)20)21-11-12-3-5-13(6-4-12)14-7-9-15(18)10-8-14/h3-10H,11H2,1-2H3,(H,19,20)/f/h19H

>  <STRUCTURE_InChIKey>
UGOFYAXVVVXMQT-LILDFLRNCL

>  <StudyType>
Carcinogenicity

>  <Endpoint>
TD50; Tumor Target Sites

>  <Species>
rat; mouse; hamster

>  <ActivityScore_CPDBAS_Rat>
0

>  <TD50_Rat_Note>
no positive results

>  <TargetSites_Rat_Male>
no positive results

>  <TargetSites_Rat_Female>
no positive results

>  <ActivityOutcome_CPDBAS_Rat>
inactive

>  <TD50_Mouse_mg>
154

>  <TD50_Mouse_mmol>
0.505

>  <ActivityScore_CPDBAS_Mouse>
32

>  <TargetSites_Mouse_Male>
liver

>  <TargetSites_Mouse_Female>
no positive results

>  <ActivityOutcome_CPDBAS_Mouse>
active

>  <ActivityScore_CPDBAS_Hamster>
0

>  <TD50_Hamster_Note>
no positive results

>  <TargetSites_Hamster_Male>
no positive results

>  <TargetSites_Hamster_Female>
no positive results

>  <ActivityOutcome_CPDBAS_Hamster>
inactive

>  <ActivityOutcome_CPDBAS_SingleCellCall>
active

>  <Note_CPDBAS>
Rat added v2a; Mouse added v2a; Hamster added v3a

>  <ChemicalPage_URL>
http://potency.berkeley.edu/chempages/CLOBUZARIT.html

$$$$



 16 16  0  0  0  0  0  0  0  0999 V2000
    4.6068   -5.3201    0.0000 C   0  0  0  0  0  0  0  0  0  0  0  0
    4.6068   -3.9880    0.0000 C   0  0  0  0  0  0  0  0  0  0  0  0
    4.6068   -2.6644    0.0000 O   0  0  0  0  0  0  0  0  0  0  0  0
    3.4551   -1.9940    0.0000 C   0  0  0  0  0  0  0  0  0  0  0  0
    2.3034   -2.6644    0.0000 C   0  0  0  0  0  0  0  0  0  0  0  0
    1.1517   -1.9940    0.0000 C   0  0  0  0  0  0  0  0  0  0  0  0
    1.1517   -0.6704    0.0000 C   0  0  0  0  0  0  0  0  0  0  0  0
    2.3034    0.0000    0.0000 C   0  0  0  0  0  0  0  0  0  0  0  0
    3.4551   -0.6704    0.0000 C   0  0  0  0  0  0  0  0  0  0  0  0
    0.0000    0.0000    0.0000 Cl  0  0  0  0  0  0  0  0  0  0  0  0
    5.9390   -3.9880    0.0000 C   0  0  0  0  0  0  0  0  0  0  0  0
    6.6008   -5.1397    0.0000 O   0  0  0  0  0  0  0  0  0  0  0  0
    6.6008   -2.8363    0.0000 O   0  0  0  0  0  0  0  0  0  0  0  0
    7.9329   -2.8363    0.0000 C   0  0  0  0  0  0  0  0  0  0  0  0
    8.5947   -1.6846    0.0000 C   0  0  0  0  0  0  0  0  0  0  0  0
    3.2746   -3.9880    0.0000 C   0  0  0  0  0  0  0  0  0  0  0  0
  1  2  1  0  0  0  0
  2  3  1  0  0  0  0
  2 11  1  0  0  0  0
  2 16  1  0  0  0  0
  3  4  1  0  0  0  0
  4  5  2  0  0  0  0
  4  9  1  0  0  0  0
  5  6  1  0  0  0  0
  6  7  2  0  0  0  0
  7  8  1  0  0  0  0
  7 10  1  0  0  0  0
  8  9  2  0  0  0  0
 11 12  2  0  0  0  0
 11 13  1  0  0  0  0
 13 14  1  0  0  0  0
 14 15  1  0  0  0  0
M  END
>  <DSSTox_RID>
20336

>  <DSSTox_CID>
336

>  <DSSTox_Generic_SID>
20336

>  <DSSTox_FileID>
349_CPDBAS_v5d

>  <STRUCTURE_Formula>
C12H15ClO3

>  <STRUCTURE_MolecularWeight>
242.6987

>  <STRUCTURE_ChemicalType>
defined organic

>  <STRUCTURE_TestedForm_DefinedOrganic>
parent

>  <STRUCTURE_Shown>
tested chemical

>  <TestSubstance_ChemicalName>
Clofibrate

>  <TestSubstance_CASRN>
637-07-0

>  <TestSubstance_Description>
single chemical compound

>  <STRUCTURE_ChemicalName_IUPAC>
ethyl 2-[(4-chlorophenyl)oxy]-2-methylpropanoate

>  <STRUCTURE_SMILES>
CC(OC1=CC=C(C=C1)Cl)(C(=O)OCC)C

>  <STRUCTURE_Parent_SMILES>
CC(OC1=CC=C(C=C1)Cl)(C(=O)OCC)C

>  <STRUCTURE_InChI>
InChI=1/C12H15ClO3/c1-4-15-11(14)12(2,3)16-10-7-5-9(13)6-8-10/h5-8H,4H2,1-3H3

>  <STRUCTURE_InChIKey>
KNHUKKLJHYUCFP-UHFFFAOYAE

>  <StudyType>
Carcinogenicity

>  <Endpoint>
TD50; Tumor Target Sites

>  <Species>
rat; mouse

>  <TD50_Rat_mg>
169

>  <TD50_Rat_mmol>
0.696

>  <ActivityScore_CPDBAS_Rat>
27

>  <TargetSites_Rat_Male>
liver; pancreas

>  <ActivityOutcome_CPDBAS_Rat>
active

>  <ActivityScore_CPDBAS_Mouse>
0

>  <TD50_Mouse_Note>
no positive results

>  <TargetSites_Mouse_Male>
no positive results

>  <TargetSites_Mouse_Female>
no positive results

>  <ActivityOutcome_CPDBAS_Mouse>
inactive

>  <ActivityOutcome_CPDBAS_SingleCellCall>
active

>  <ActivityOutcome_CPDBAS_MultiCellCall>
active

>  <ActivityOutcome_CPDBAS_MultiCellCall_Details>
multisite active

>  <Note_CPDBAS>
Mouse added v3a

>  <ChemicalPage_URL>
http://potency.berkeley.edu/chempages/CLOFIBRATE.html

$$$$



 23 27  0  0  1  0  0  0  0  0999 V2000
    2.2855   -5.2669    0.0000 C   0  0  2  0  0  0  0  0  0  0  0  0
    2.2855   -3.9383    0.0000 C   0  0  0  0  0  0  0  0  0  0  0  0
    3.4005   -5.9233    0.0000 C   0  0  2  0  0  0  0  0  0  0  0  0
    1.1388   -3.2819    0.0000 C   0  0  0  0  0  0  0  0  0  0  0  0
    1.1388   -5.9233    0.0000 C   0  0  1  0  0  0  0  0  0  0  0  0
    0.3796   -4.5630    0.0000 O   0  0  0  0  0  0  0  0  0  0  0  0
    4.5314   -5.2432    0.0000 C   0  0  1  0  0  0  0  0  0  0  0  0
    3.4005   -3.2819    0.0000 C   0  0  0  0  0  0  0  0  0  0  0  0
    3.4005   -7.2281    0.0000 C   0  0  0  0  0  0  0  0  0  0  0  0
    4.5314   -3.9383    0.0000 C   0  0  0  0  0  0  0  0  0  0  0  0
    5.1641   -5.8521    0.0000 N   0  0  0  0  0  0  0  0  0  0  0  0
    2.2855   -6.5717    0.0000 C   0  0  0  0  0  0  0  0  0  0  0  0
    2.2855   -7.8845    0.0000 C   0  0  0  0  0  0  0  0  0  0  0  0
    1.1388   -7.2518    0.0000 C   0  0  2  0  0  0  0  0  0  0  0  0
    1.1388   -1.9850    0.0000 C   0  0  0  0  0  0  0  0  0  0  0  0
    4.7845   -6.5717    0.0000 C   0  0  0  0  0  0  0  0  0  0  0  0
    3.4005   -1.9850    0.0000 C   0  0  0  0  0  0  0  0  0  0  0  0
    2.2855   -1.3128    0.0000 C   0  0  0  0  0  0  0  0  0  0  0  0
    0.0395   -7.9082    0.0000 O   0  0  0  0  0  0  0  0  0  0  0  0
    0.0000   -1.3128    0.0000 O   0  0  0  0  0  0  0  0  0  0  0  0
    6.3898   -5.8521    0.0000 C   0  0  0  0  0  0  0  0  0  0  0  0
    0.0000    0.0000    0.0000 C   0  0  0  0  0  0  0  0  0  0  0  0
    3.4005   -4.6500    0.0000 H   0  0  0  0  0  0  0  0  0  0  0  0
  1  2  1  0  0  0  0
  1  3  1  0  0  0  0
  1  5  1  0  0  0  0
  1 12  1  1  0  0  0
  2  4  1  0  0  0  0
  2  8  2  0  0  0  0
  3  7  1  0  0  0  0
  3  9  1  0  0  0  0
  3 23  1  1  0  0  0
  4 15  2  0  0  0  0
  4  6  1  0  0  0  0
  5  6  1  6  0  0  0
  5 14  1  0  0  0  0
  7 10  1  0  0  0  0
  7 11  1  1  0  0  0
  8 17  1  0  0  0  0
  8 10  1  0  0  0  0
  9 13  2  0  0  0  0
 11 16  1  0  0  0  0
 11 21  1  0  0  0  0
 12 16  1  0  0  0  0
 13 14  1  0  0  0  0
 14 19  1  6  0  0  0
 15 20  1  0  0  0  0
 15 18  1  0  0  0  0
 17 18  2  0  0  0  0
 20 22  1  0  0  0  0
M  END
>  <DSSTox_RID>
20341

>  <DSSTox_CID>
341

>  <DSSTox_Generic_SID>
20341

>  <DSSTox_FileID>
354_CPDBAS_v5d

>  <STRUCTURE_Formula>
C18H21NO3

>  <STRUCTURE_MolecularWeight>
299.3642

>  <STRUCTURE_ChemicalType>
defined organic

>  <STRUCTURE_TestedForm_DefinedOrganic>
parent

>  <STRUCTURE_Shown>
tested chemical

>  <TestSubstance_ChemicalName>
Codeine

>  <TestSubstance_CASRN>
76-57-3

>  <TestSubstance_Description>
single chemical compound

>  <ChemicalNote>
stereochem

>  <STRUCTURE_ChemicalName_IUPAC>
(5alpha,6alpha)-17-methyl-3-(methyloxy)-7,8-didehydro-4,5-epoxymorphinan-6-ol

>  <STRUCTURE_SMILES>
O[C@@H]1C2[C@@]34C5=C(C=CC(=C5O2)OC)CC(C3C=C1)N(C)CC4

>  <STRUCTURE_Parent_SMILES>
O[C@@H]1C2[C@@]34C5=C(C=CC(=C5O2)OC)CC(C3C=C1)N(C)CC4

>  <STRUCTURE_InChI>
InChI=1/C18H21NO3/c1-19-8-7-18-11-4-5-13(20)17(18)22-16-14(21-2)6-3-10(15(16)18)9-12(11)19/h3-6,11-13,17,20H,7-9H2,1-2H3/t11-,12+,13-,17-,18-/m0/s1

>  <STRUCTURE_InChIKey>
OROGSEYTTFOCAN-DNJOTXNNBG

>  <StudyType>
Carcinogenicity

>  <Endpoint>
TD50; Tumor Target Sites

>  <Species>
rat; mouse

>  <ActivityOutcome_CPDBAS_Mutagenicity>
inactive

>  <ActivityScore_CPDBAS_Rat>
0

>  <TD50_Rat_Note>
no positive results

>  <TargetSites_Rat_Male>
no positive results

>  <TargetSites_Rat_Female>
no positive results

>  <ActivityOutcome_CPDBAS_Rat>
inactive

>  <ActivityScore_CPDBAS_Mouse>
0

>  <TD50_Mouse_Note>
no positive results

>  <TargetSites_Mouse_Male>
no positive results

>  <TargetSites_Mouse_Female>
no positive results

>  <ActivityOutcome_CPDBAS_Mouse>
inactive

>  <ActivityOutcome_CPDBAS_SingleCellCall>
inactive

>  <ActivityOutcome_CPDBAS_MultiCellCall>
inactive

>  <ActivityOutcome_CPDBAS_MultiCellCall_Details>
multisex inactive; multispecies inactive

>  <NTP_TechnicalReport>
TR 455

>  <ChemicalPage_URL>
http://potency.berkeley.edu/chempages/CODEINE.html

$$$$



 27 29  0  0  1  0  0  0  0  0999 V2000
    5.7649   -8.4928    0.0000 C   0  0  0  0  0  0  0  0  0  0  0  0
    5.7649   -7.1565    0.0000 O   0  0  0  0  0  0  0  0  0  0  0  0
    4.6053   -6.4938    0.0000 C   0  0  0  0  0  0  0  0  0  0  0  0
    3.4568   -7.1565    0.0000 C   0  0  0  0  0  0  0  0  0  0  0  0
    2.3082   -6.4938    0.0000 C   0  0  0  0  0  0  0  0  0  0  0  0
    2.3082   -5.1575    0.0000 C   0  0  0  0  0  0  0  0  0  0  0  0
    3.4568   -4.4949    0.0000 C   0  0  0  0  0  0  0  0  0  0  0  0
    4.6053   -5.1575    0.0000 C   0  0  0  0  0  0  0  0  0  0  0  0
    5.8533   -4.6716    0.0000 C   0  0  0  0  0  0  0  0  0  0  0  0
    6.6043   -5.7760    0.0000 C   0  0  0  0  0  0  0  0  0  0  0  0
    7.9075   -5.8533    0.0000 C   0  0  0  0  0  0  0  0  0  0  0  0
    8.8462   -4.9146    0.0000 C   0  0  0  0  0  0  0  0  0  0  0  0
   10.1052   -5.2901    0.0000 O   0  0  0  0  0  0  0  0  0  0  0  0
   11.0440   -4.3513    0.0000 C   0  0  0  0  0  0  0  0  0  0  0  0
    8.6364   -3.5893    0.0000 C   0  0  0  0  0  0  0  0  0  0  0  0
    9.7297   -2.8383    0.0000 O   0  0  0  0  0  0  0  0  0  0  0  0
    7.4768   -2.9156    0.0000 C   0  0  0  0  0  0  0  0  0  0  0  0
    6.2398   -3.4015    0.0000 C   0  0  0  0  0  0  0  0  0  0  0  0
    5.4888   -2.3082    0.0000 C   0  0  1  0  0  0  0  0  0  0  0  0
    6.1625   -1.1486    0.0000 N   0  0  0  0  0  0  0  0  0  0  0  0
    5.4888    0.0000    0.0000 C   0  0  0  0  0  0  0  0  0  0  0  0
    4.1857   -2.2198    0.0000 C   0  0  0  0  0  0  0  0  0  0  0  0
    3.2469   -3.1696    0.0000 C   0  0  0  0  0  0  0  0  0  0  0  0
    1.1486   -7.1565    0.0000 O   0  0  0  0  0  0  0  0  0  0  0  0
    0.0000   -6.4938    0.0000 C   0  0  0  0  0  0  0  0  0  0  0  0
    3.4568   -8.4928    0.0000 O   0  0  0  0  0  0  0  0  0  0  0  0
    2.3082   -9.1554    0.0000 C   0  0  0  0  0  0  0  0  0  0  0  0
  1  2  1  0  0  0  0
  2  3  1  0  0  0  0
  3  4  2  0  0  0  0
  3  8  1  0  0  0  0
  4  5  1  0  0  0  0
  4 26  1  0  0  0  0
  5  6  2  0  0  0  0
  5 24  1  0  0  0  0
  6  7  1  0  0  0  0
  7  8  2  0  0  0  0
  7 23  1  0  0  0  0
  8  9  1  0  0  0  0
  9 10  2  0  0  0  0
  9 18  1  0  0  0  0
 10 11  1  0  0  0  0
 11 12  2  0  0  0  0
 12 13  1  0  0  0  0
 12 15  1  0  0  0  0
 13 14  1  0  0  0  0
 15 16  2  0  0  0  0
 15 17  1  0  0  0  0
 17 18  2  0  0  0  0
 18 19  1  0  0  0  0
 19 20  1  6  0  0  0
 19 22  1  0  0  0  0
 20 21  1  0  0  0  0
 22 23  1  0  0  0  0
 24 25  1  0  0  0  0
 26 27  1  0  0  0  0
M  END
>  <DSSTox_RID>
20342

>  <DSSTox_CID>
342

>  <DSSTox_Generic_SID>
20342

>  <DSSTox_FileID>
355_CPDBAS_v5d

>  <STRUCTURE_Formula>
C21H25NO5

>  <STRUCTURE_MolecularWeight>
371.4322

>  <STRUCTURE_ChemicalType>
defined organic

>  <STRUCTURE_TestedForm_DefinedOrganic>
parent

>  <STRUCTURE_Shown>
tested chemical

>  <TestSubstance_ChemicalName>
Colcemid

>  <TestSubstance_CASRN>
477-30-5

>  <TestSubstance_Description>
single chemical compound

>  <ChemicalNote>
stereochem

>  <STRUCTURE_ChemicalName_IUPAC>
(7S)-7-(methylamino)-1,2,3,10-tetrakis(methyloxy)-6,7-dihydrobenzo[a]heptalen-9(5H)-one

>  <STRUCTURE_SMILES>
COC1=C(C(=CC2=C1C3=CC=C(OC)C(=O)C=C3[C@@H](NC)CC2)OC)OC

>  <STRUCTURE_Parent_SMILES>
COC1=C(C(=CC2=C1C3=CC=C(OC)C(=O)C=C3[C@@H](NC)CC2)OC)OC

>  <STRUCTURE_InChI>
InChI=1/C21H25NO5/c1-22-15-8-6-12-10-18(25-3)20(26-4)21(27-5)19(12)13-7-9-17(24-2)16(23)11-14(13)15/h7,9-11,15,22H,6,8H2,1-5H3/t15-/m0/s1

>  <STRUCTURE_InChIKey>
NNJPGOLRFBJNIW-HNNXBMFYBY

>  <StudyType>
Carcinogenicity

>  <Endpoint>
TD50; Tumor Target Sites

>  <Species>
rat

>  <ActivityScore_CPDBAS_Rat>
0

>  <TD50_Rat_Note>
no positive results

>  <TargetSites_Rat_Male>
no positive results

>  <ActivityOutcome_CPDBAS_Rat>
inactive

>  <ActivityOutcome_CPDBAS_SingleCellCall>
inactive

>  <ChemicalPage_URL>
http://potency.berkeley.edu/chempages/COLCEMID.html

$$$$



 22 24  0  0  0  0  0  0  0  0999 V2000
    2.3046   -1.9911    0.0000 N   0  0  0  0  0  0  0  0  0  0  0  0
    3.4568   -1.3274    0.0000 C   0  0  0  0  0  0  0  0  0  0  0  0
    4.5999   -1.9911    0.0000 N   0  0  0  0  0  0  0  0  0  0  0  0
    4.5999   -3.3186    0.0000 C   0  0  0  0  0  0  0  0  0  0  0  0
    3.4568   -3.9915    0.0000 C   0  0  0  0  0  0  0  0  0  0  0  0
    3.4568   -5.3189    0.0000 C   0  0  0  0  0  0  0  0  0  0  0  0
    2.3046   -5.9826    0.0000 C   0  0  0  0  0  0  0  0  0  0  0  0
    1.1523   -5.3189    0.0000 C   0  0  0  0  0  0  0  0  0  0  0  0
    1.1523   -3.9915    0.0000 C   0  0  0  0  0  0  0  0  0  0  0  0
    2.3046   -3.3186    0.0000 C   0  0  0  0  0  0  0  0  0  0  0  0
    0.0000   -5.9826    0.0000 C   0  0  0  0  0  0  0  0  0  0  0  0
    5.7614   -3.9915    0.0000 C   0  0  0  0  0  0  0  0  0  0  0  0
    6.9137   -3.3186    0.0000 C   0  0  0  0  0  0  0  0  0  0  0  0
    8.0660   -3.9915    0.0000 C   0  0  0  0  0  0  0  0  0  0  0  0
    8.0660   -5.3189    0.0000 C   0  0  0  0  0  0  0  0  0  0  0  0
    6.9137   -5.9826    0.0000 C   0  0  0  0  0  0  0  0  0  0  0  0
    5.7614   -5.3189    0.0000 C   0  0  0  0  0  0  0  0  0  0  0  0
    9.2182   -3.3186    0.0000 O   0  0  0  0  0  0  0  0  0  0  0  0
    3.4568    0.0000    0.0000 O   0  0  0  0  0  0  0  0  0  0  0  0
    1.1523   -1.3274    0.0000 C   0  0  0  0  0  0  0  0  0  0  0  0
    0.0000   -1.9911    0.0000 C   0  0  0  0  0  0  0  0  0  0  0  0
    1.1523    0.0000    0.0000 C   0  0  0  0  0  0  0  0  0  0  0  0
  1  2  1  0  0  0  0
  1 10  1  0  0  0  0
  1 20  1  0  0  0  0
  2  3  1  0  0  0  0
  2 19  2  0  0  0  0
  3  4  2  0  0  0  0
  4  5  1  0  0  0  0
  4 12  1  0  0  0  0
  5  6  1  0  0  0  0
  5 10  2  0  0  0  0
  6  7  2  0  0  0  0
  7  8  1  0  0  0  0
  8  9  2  0  0  0  0
  8 11  1  0  0  0  0
  9 10  1  0  0  0  0
 12 13  1  0  0  0  0
 12 17  2  0  0  0  0
 13 14  2  0  0  0  0
 14 15  1  0  0  0  0
 14 18  1  0  0  0  0
 15 16  2  0  0  0  0
 16 17  1  0  0  0  0
 20 21  1  0  0  0  0
 20 22  1  0  0  0  0
M  END
>  <DSSTox_RID>
20343

>  <DSSTox_CID>
343

>  <DSSTox_Generic_SID>
20343

>  <DSSTox_FileID>
356_CPDBAS_v5d

>  <STRUCTURE_Formula>
C18H18N2O2

>  <STRUCTURE_MolecularWeight>
294.3477

>  <STRUCTURE_ChemicalType>
defined organic

>  <STRUCTURE_TestedForm_DefinedOrganic>
parent

>  <STRUCTURE_Shown>
tested chemical

>  <TestSubstance_ChemicalName>
Compound 50-892

>  <TestSubstance_CASRN>
65765-07-3

>  <TestSubstance_Description>
single chemical compound

>  <STRUCTURE_ChemicalName_IUPAC>
4-(3-hydroxyphenyl)-7-methyl-1-(propan-2-yl)quinazolin-2(1H)-one

>  <STRUCTURE_SMILES>
OC1=CC(C2=NC(N(C(C)C)C3=C2C=CC(C)=C3)=O)=CC=C1

>  <STRUCTURE_Parent_SMILES>
OC1=CC(C2=NC(N(C(C)C)C3=C2C=CC(C)=C3)=O)=CC=C1

>  <STRUCTURE_InChI>
InChI=1/C18H18N2O2/c1-11(2)20-16-9-12(3)7-8-15(16)17(19-18(20)22)13-5-4-6-14(21)10-13/h4-11,21H,1-3H3

>  <STRUCTURE_InChIKey>
HGZHAINHFBFXIU-UHFFFAOYAI

>  <StudyType>
Carcinogenicity

>  <Endpoint>
TD50; Tumor Target Sites

>  <Species>
rat; mouse

>  <ActivityScore_CPDBAS_Rat>
0

>  <TD50_Rat_Note>
no positive results

>  <TargetSites_Rat_Male>
no positive results

>  <TargetSites_Rat_Female>
no positive results

>  <ActivityOutcome_CPDBAS_Rat>
inactive

>  <ActivityScore_CPDBAS_Mouse>
0

>  <TD50_Mouse_Note>
no positive results

>  <TargetSites_Mouse_Male>
no positive results

>  <TargetSites_Mouse_Female>
no positive results

>  <ActivityOutcome_CPDBAS_Mouse>
inactive

>  <ActivityOutcome_CPDBAS_SingleCellCall>
inactive

>  <ActivityOutcome_CPDBAS_MultiCellCall>
inactive

>  <ActivityOutcome_CPDBAS_MultiCellCall_Details>
multisex inactive; multispecies inactive

>  <Note_CPDBAS>
structure modified v5b

>  <ChemicalPage_URL>
http://potency.berkeley.edu/chempages/COMPOUND%2050-892.html

$$$$



 23 24  0  0  0  0  0  0  0  0999 V2000
    9.0180   -3.9913    0.0000 C   0  0  0  0  0  0  0  0  0  0  0  0
   10.1623   -3.3238    0.0000 C   0  0  0  0  0  0  0  0  0  0  0  0
   11.3202   -3.9913    0.0000 C   0  0  0  0  0  0  0  0  0  0  0  0
   11.3202   -5.3263    0.0000 C   0  0  0  0  0  0  0  0  0  0  0  0
   10.1623   -5.9802    0.0000 C   0  0  0  0  0  0  0  0  0  0  0  0
    9.0180   -5.3263    0.0000 C   0  0  0  0  0  0  0  0  0  0  0  0
   12.4644   -5.9802    0.0000 C   0  0  0  0  0  0  0  0  0  0  0  0
   13.6223   -5.3263    0.0000 C   0  0  0  0  0  0  0  0  0  0  0  0
   12.4644   -7.3152    0.0000 O   0  0  0  0  0  0  0  0  0  0  0  0
   12.4644   -3.3238    0.0000 O   0  0  0  0  0  0  0  0  0  0  0  0
   10.1623   -1.9889    0.0000 C   0  0  0  0  0  0  0  0  0  0  0  0
   11.3202   -1.3350    0.0000 C   0  0  0  0  0  0  0  0  0  0  0  0
   11.3202    0.0000    0.0000 C   0  0  0  0  0  0  0  0  0  0  0  0
    7.8601   -3.3238    0.0000 O   0  0  0  0  0  0  0  0  0  0  0  0
    6.7158   -3.9913    0.0000 C   0  0  0  0  0  0  0  0  0  0  0  0
    5.5579   -3.3238    0.0000 C   0  0  0  0  0  0  0  0  0  0  0  0
    4.4136   -3.9913    0.0000 C   0  0  0  0  0  0  0  0  0  0  0  0
    3.2557   -3.3238    0.0000 C   0  0  0  0  0  0  0  0  0  0  0  0
    2.1115   -3.9913    0.0000 C   0  0  0  0  0  0  0  0  0  0  0  0
    1.9616   -5.3127    0.0000 N   0  0  0  0  0  0  0  0  0  0  0  0
    0.6675   -5.5852    0.0000 N   0  0  0  0  0  0  0  0  0  0  0  0
    0.0000   -4.4409    0.0000 N   0  0  0  0  0  0  0  0  0  0  0  0
    0.8855   -3.4464    0.0000 N   0  0  0  0  0  0  0  0  0  0  0  0
  1  2  2  0  0  0  0
  1  6  1  0  0  0  0
  1 14  1  0  0  0  0
  2  3  1  0  0  0  0
  2 11  1  0  0  0  0
  3  4  2  0  0  0  0
  3 10  1  0  0  0  0
  4  5  1  0  0  0  0
  4  7  1  0  0  0  0
  5  6  2  0  0  0  0
  7  8  1  0  0  0  0
  7  9  2  0  0  0  0
 11 12  1  0  0  0  0
 12 13  1  0  0  0  0
 14 15  1  0  0  0  0
 15 16  1  0  0  0  0
 16 17  1  0  0  0  0
 17 18  1  0  0  0  0
 18 19  1  0  0  0  0
 19 20  1  0  0  0  0
 19 23  2  0  0  0  0
 20 21  1  0  0  0  0
 21 22  2  0  0  0  0
 22 23  1  0  0  0  0
M  END
>  <DSSTox_RID>
20344

>  <DSSTox_CID>
344

>  <DSSTox_Generic_SID>
20344

>  <DSSTox_FileID>
357_CPDBAS_v5d

>  <STRUCTURE_Formula>
C16H22N4O3

>  <STRUCTURE_MolecularWeight>
318.3748

>  <STRUCTURE_ChemicalType>
defined organic

>  <STRUCTURE_TestedForm_DefinedOrganic>
parent

>  <STRUCTURE_Shown>
tested chemical

>  <TestSubstance_ChemicalName>
Compound LY171883

>  <TestSubstance_CASRN>
88107-10-2

>  <TestSubstance_Description>
single chemical compound

>  <ChemicalNote>
tautomers

>  <STRUCTURE_ChemicalName_IUPAC>
1-(2-hydroxy-3-propyl-4-{[4-(1H-tetrazol-5-yl)butyl]oxy}phenyl)ethanone

>  <STRUCTURE_SMILES>
C1(=C(C(=C(C=C1)C(C)=O)O)CCC)OCCCCC2NN=NN=2

>  <STRUCTURE_Parent_SMILES>
C1(=C(C(=C(C=C1)C(C)=O)O)CCC)OCCCCC2NN=NN=2

>  <STRUCTURE_InChI>
InChI=1/C16H22N4O3/c1-3-6-13-14(9-8-12(11(2)21)16(13)22)23-10-5-4-7-15-17-19-20-18-15/h8-9,22H,3-7,10H2,1-2H3,(H,17,18,19,20)/f/h17H

>  <STRUCTURE_InChIKey>
MWYHLEQJTQJHSS-HCKMINDGCG

>  <StudyType>
Carcinogenicity

>  <Endpoint>
TD50; Tumor Target Sites

>  <Species>
mouse

>  <TD50_Mouse_mg>
112

>  <TD50_Mouse_mmol>
0.352

>  <ActivityScore_CPDBAS_Mouse>
33

>  <TargetSites_Mouse_Male>
no positive results

>  <TargetSites_Mouse_Female>
liver

>  <ActivityOutcome_CPDBAS_Mouse>
active

>  <ActivityOutcome_CPDBAS_SingleCellCall>
active

>  <ChemicalPage_URL>
http://potency.berkeley.edu/chempages/COMPOUND%20LY171883.html

$$$$



 22 23  0  0  0  0  0  0  0  0999 V2000
    2.3022   -0.1266    0.0000 C   0  0  0  0  0  0  0  0  0  0  0  0
    2.3022   -1.4619    0.0000 C   0  0  0  0  0  0  0  0  0  0  0  0
    1.1511   -2.1295    0.0000 C   0  0  0  0  0  0  0  0  0  0  0  0
    0.0000   -1.4619    0.0000 Cl  0  0  0  0  0  0  0  0  0  0  0  0
    1.1511   -3.4533    0.0000 C   0  0  0  0  0  0  0  0  0  0  0  0
    0.0000   -4.1209    0.0000 O   0  0  0  0  0  0  0  0  0  0  0  0
    2.3022   -4.1209    0.0000 O   0  0  0  0  0  0  0  0  0  0  0  0
    3.4533   -3.4533    0.0000 C   0  0  0  0  0  0  0  0  0  0  0  0
    3.4533   -2.1295    0.0000 C   0  0  0  0  0  0  0  0  0  0  0  0
    4.6044   -1.4619    0.0000 C   0  0  0  0  0  0  0  0  0  0  0  0
    5.7555   -2.1295    0.0000 C   0  0  0  0  0  0  0  0  0  0  0  0
    5.7555   -3.4533    0.0000 C   0  0  0  0  0  0  0  0  0  0  0  0
    4.6044   -4.1209    0.0000 C   0  0  0  0  0  0  0  0  0  0  0  0
    6.9066   -4.1209    0.0000 O   0  0  0  0  0  0  0  0  0  0  0  0
    8.0577   -3.4533    0.0000 P   0  0  0  0  0  0  0  0  0  0  0  0
    8.7254   -4.6044    0.0000 S   0  0  0  0  0  0  0  0  0  0  0  0
    7.3901   -2.3022    0.0000 O   0  0  0  0  0  0  0  0  0  0  0  0
    8.0577   -1.1511    0.0000 C   0  0  0  0  0  0  0  0  0  0  0  0
    7.3901    0.0000    0.0000 C   0  0  0  0  0  0  0  0  0  0  0  0
    9.2088   -2.7857    0.0000 O   0  0  0  0  0  0  0  0  0  0  0  0
   10.3599   -3.4533    0.0000 C   0  0  0  0  0  0  0  0  0  0  0  0
   11.5110   -2.7857    0.0000 C   0  0  0  0  0  0  0  0  0  0  0  0
  1  2  1  0  0  0  0
  2  3  2  0  0  0  0
  2  9  1  0  0  0  0
  3  4  1  0  0  0  0
  3  5  1  0  0  0  0
  5  6  2  0  0  0  0
  5  7  1  0  0  0  0
  7  8  1  0  0  0  0
  8  9  2  0  0  0  0
  8 13  1  0  0  0  0
  9 10  1  0  0  0  0
 10 11  2  0  0  0  0
 11 12  1  0  0  0  0
 12 13  2  0  0  0  0
 12 14  1  0  0  0  0
 14 15  1  0  0  0  0
 15 16  2  0  0  0  0
 15 17  1  0  0  0  0
 15 20  1  0  0  0  0
 17 18  1  0  0  0  0
 18 19  1  0  0  0  0
 20 21  1  0  0  0  0
 21 22  1  0  0  0  0
M  END
>  <DSSTox_RID>
20347

>  <DSSTox_CID>
347

>  <DSSTox_Generic_SID>
20347

>  <DSSTox_FileID>
360_CPDBAS_v5d

>  <STRUCTURE_Formula>
C14H16ClO5PS

>  <STRUCTURE_MolecularWeight>
362.7656

>  <STRUCTURE_ChemicalType>
defined organic

>  <STRUCTURE_TestedForm_DefinedOrganic>
parent

>  <STRUCTURE_Shown>
tested chemical

>  <TestSubstance_ChemicalName>
Coumaphos

>  <TestSubstance_CASRN>
56-72-4

>  <TestSubstance_Description>
single chemical compound

>  <STRUCTURE_ChemicalName_IUPAC>
O-(3-chloro-4-methyl-2-oxo-2H-chromen-7-yl) O,O-diethyl thiophosphate

>  <STRUCTURE_SMILES>
CC1=C(Cl)C(=O)OC2=C1C=CC(=C2)OP(=S)(OCC)OCC

>  <STRUCTURE_Parent_SMILES>
CC1=C(Cl)C(=O)OC2=C1C=CC(=C2)OP(=S)(OCC)OCC

>  <STRUCTURE_InChI>
InChI=1/C14H16ClO5PS/c1-4-17-21(22,18-5-2)20-10-6-7-11-9(3)13(15)14(16)19-12(11)8-10/h6-8H,4-5H2,1-3H3

>  <STRUCTURE_InChIKey>
BXNANOICGRISHX-UHFFFAOYAO

>  <StudyType>
Carcinogenicity

>  <Endpoint>
TD50; Tumor Target Sites

>  <Species>
rat; mouse

>  <ActivityOutcome_CPDBAS_Mutagenicity>
inactive

>  <ActivityScore_CPDBAS_Rat>
0

>  <TD50_Rat_Note>
no positive results

>  <TargetSites_Rat_Male>
no positive results

>  <TargetSites_Rat_Female>
no positive results

>  <ActivityOutcome_CPDBAS_Rat>
inactive

>  <ActivityScore_CPDBAS_Mouse>
0

>  <TD50_Mouse_Note>
no positive results

>  <TargetSites_Mouse_Male>
no positive results

>  <TargetSites_Mouse_Female>
no positive results

>  <ActivityOutcome_CPDBAS_Mouse>
inactive

>  <ActivityOutcome_CPDBAS_SingleCellCall>
inactive

>  <ActivityOutcome_CPDBAS_MultiCellCall>
inactive

>  <ActivityOutcome_CPDBAS_MultiCellCall_Details>
multisex inactive; multispecies inactive

>  <NTP_TechnicalReport>
TR 96

>  <ChemicalPage_URL>
http://potency.berkeley.edu/chempages/COUMAPHOS.html

$$$$



 11 12  0  0  0  0  0  0  0  0999 V2000
    0.0000   -2.6606    0.0000 O   0  0  0  0  0  0  0  0  0  0  0  0
    1.1518   -1.9983    0.0000 C   0  0  0  0  0  0  0  0  0  0  0  0
    2.3036   -2.6606    0.0000 O   0  0  0  0  0  0  0  0  0  0  0  0
    3.4554   -1.9983    0.0000 C   0  0  0  0  0  0  0  0  0  0  0  0
    3.4554   -0.6680    0.0000 C   0  0  0  0  0  0  0  0  0  0  0  0
    4.6071    0.0000    0.0000 C   0  0  0  0  0  0  0  0  0  0  0  0
    5.7589   -0.6680    0.0000 C   0  0  0  0  0  0  0  0  0  0  0  0
    5.7589   -1.9983    0.0000 C   0  0  0  0  0  0  0  0  0  0  0  0
    4.6071   -2.6606    0.0000 C   0  0  0  0  0  0  0  0  0  0  0  0
    2.3036    0.0000    0.0000 C   0  0  0  0  0  0  0  0  0  0  0  0
    1.1518   -0.6680    0.0000 C   0  0  0  0  0  0  0  0  0  0  0  0
  1  2  2  0  0  0  0
  2  3  1  0  0  0  0
  2 11  1  0  0  0  0
  3  4  1  0  0  0  0
  4  5  2  0  0  0  0
  4  9  1  0  0  0  0
  5  6  1  0  0  0  0
  5 10  1  0  0  0  0
  6  7  2  0  0  0  0
  7  8  1  0  0  0  0
  8  9  2  0  0  0  0
 10 11  2  0  0  0  0
M  END
>  <DSSTox_RID>
20348

>  <DSSTox_CID>
348

>  <DSSTox_Generic_SID>
20348

>  <DSSTox_FileID>
361_CPDBAS_v5d

>  <STRUCTURE_Formula>
C9H6O2

>  <STRUCTURE_MolecularWeight>
146.1427

>  <STRUCTURE_ChemicalType>
defined organic

>  <STRUCTURE_TestedForm_DefinedOrganic>
parent

>  <STRUCTURE_Shown>
tested chemical

>  <TestSubstance_ChemicalName>
Coumarin

>  <TestSubstance_CASRN>
91-64-5

>  <TestSubstance_Description>
single chemical compound

>  <STRUCTURE_ChemicalName_IUPAC>
2H-chromen-2-one

>  <STRUCTURE_SMILES>
O=C1OC2=C(C=CC=C2)C=C1

>  <STRUCTURE_Parent_SMILES>
O=C1OC2=C(C=CC=C2)C=C1

>  <STRUCTURE_InChI>
InChI=1/C9H6O2/c10-9-6-5-7-3-1-2-4-8(7)11-9/h1-6H

>  <STRUCTURE_InChIKey>
ZYGHJZDHTFUPRJ-UHFFFAOYAC

>  <StudyType>
Carcinogenicity

>  <Endpoint>
TD50; Tumor Target Sites

>  <Species>
rat; mouse; hamster

>  <ActivityOutcome_CPDBAS_Mutagenicity>
active

>  <TD50_Rat_mg>
39.2

>  <TD50_Rat_mmol>
0.268

>  <ActivityScore_CPDBAS_Rat>
32

>  <TD50_Rat_Note>
TD50 is harmonic mean of more than one positive test; greater than ten-fold variation among TD50 values for positive results

>  <TargetSites_Rat_Male>
kidney; liver

>  <TargetSites_Rat_Female>
liver

>  <ActivityOutcome_CPDBAS_Rat>
active

>  <TD50_Mouse_mg>
103

>  <TD50_Mouse_mmol>
0.705

>  <ActivityScore_CPDBAS_Mouse>
30

>  <TD50_Mouse_Note>
TD50 is harmonic mean of more than one positive test

>  <TargetSites_Mouse_Male>
lung

>  <TargetSites_Mouse_Female>
liver; lung

>  <ActivityOutcome_CPDBAS_Mouse>
active

>  <ActivityScore_CPDBAS_Hamster>
0

>  <TD50_Hamster_Note>
no positive results

>  <TargetSites_Hamster_Male>
no positive results

>  <TargetSites_Hamster_Female>
no positive results

>  <ActivityOutcome_CPDBAS_Hamster>
inactive

>  <ActivityOutcome_CPDBAS_SingleCellCall>
active

>  <ActivityOutcome_CPDBAS_MultiCellCall>
active

>  <ActivityOutcome_CPDBAS_MultiCellCall_Details>
multisite active; multisex active; multispecies active

>  <Note_CPDBAS>
TD50_Rat modified v2a; TargetSites_Rat_Male modified v2a; TargetSites_Rat_Female modified v2a

>  <NTP_TechnicalReport>
TR 422; final call in CPDB differs due to additional data

>  <ChemicalPage_URL>
http://potency.berkeley.edu/chempages/COUMARIN.html

$$$$



 10 10  0  0  0  0  0  0  0  0999 V2000
    5.7597   -1.9986    0.0000 C   0  0  0  0  0  0  0  0  0  0  0  0
    4.6078   -2.6610    0.0000 O   0  0  0  0  0  0  0  0  0  0  0  0
    3.4558   -1.9986    0.0000 C   0  0  0  0  0  0  0  0  0  0  0  0
    2.3039   -2.6610    0.0000 C   0  0  0  0  0  0  0  0  0  0  0  0
    1.1519   -1.9986    0.0000 C   0  0  0  0  0  0  0  0  0  0  0  0
    1.1519   -0.6681    0.0000 C   0  0  0  0  0  0  0  0  0  0  0  0
    2.3039    0.0000    0.0000 C   0  0  0  0  0  0  0  0  0  0  0  0
    3.4558   -0.6681    0.0000 C   0  0  0  0  0  0  0  0  0  0  0  0
    0.0000    0.0000    0.0000 N   0  0  0  0  0  0  0  0  0  0  0  0
    0.0000   -2.6610    0.0000 C   0  0  0  0  0  0  0  0  0  0  0  0
  1  2  1  0  0  0  0
  2  3  1  0  0  0  0
  3  4  2  0  0  0  0
  3  8  1  0  0  0  0
  4  5  1  0  0  0  0
  5  6  2  0  0  0  0
  5 10  1  0  0  0  0
  6  7  1  0  0  0  0
  6  9  1  0  0  0  0
  7  8  2  0  0  0  0
M  END
>  <DSSTox_RID>
20349

>  <DSSTox_CID>
349

>  <DSSTox_Generic_SID>
20349

>  <DSSTox_FileID>
362_CPDBAS_v5d

>  <STRUCTURE_Formula>
C8H11NO

>  <STRUCTURE_MolecularWeight>
137.179

>  <STRUCTURE_ChemicalType>
defined organic

>  <STRUCTURE_TestedForm_DefinedOrganic>
parent

>  <STRUCTURE_Shown>
tested chemical

>  <TestSubstance_ChemicalName>
m-Cresidine

>  <TestSubstance_CASRN>
102-50-1

>  <TestSubstance_Description>
single chemical compound

>  <STRUCTURE_ChemicalName_IUPAC>
4-methoxy-2-methylaniline

>  <STRUCTURE_SMILES>
COC1=CC(=C(C=C1)N)C

>  <STRUCTURE_Parent_SMILES>
COC1=CC(=C(C=C1)N)C

>  <STRUCTURE_InChI>
InChI=1/C8H11NO/c1-6-5-7(10-2)3-4-8(6)9/h3-5H,9H2,1-2H3

>  <STRUCTURE_InChIKey>
CDGNLUSBENXDGG-UHFFFAOYAO

>  <StudyType>
Carcinogenicity

>  <Endpoint>
TD50; Tumor Target Sites

>  <Species>
rat; mouse

>  <ActivityOutcome_CPDBAS_Mutagenicity>
active

>  <TD50_Rat_mg>
470

>  <TD50_Rat_mmol>
3.43

>  <ActivityScore_CPDBAS_Rat>
20

>  <TD50_Rat_Note>
TD50 is harmonic mean of more than one positive test

>  <TargetSites_Rat_Male>
urinary bladder

>  <TargetSites_Rat_Female>
urinary bladder

>  <ActivityOutcome_CPDBAS_Rat>
active

>  <ActivityScore_CPDBAS_Mouse>
0

>  <TD50_Mouse_Note>
no positive results

>  <TargetSites_Mouse_Male>
NTP bioassay inadequate

>  <TargetSites_Mouse_Female>
no positive results

>  <ActivityOutcome_CPDBAS_Mouse>
inactive

>  <ActivityOutcome_CPDBAS_SingleCellCall>
active

>  <ActivityOutcome_CPDBAS_MultiCellCall>
active

>  <ActivityOutcome_CPDBAS_MultiCellCall_Details>
multisex active

>  <NTP_TechnicalReport>
TR 105

>  <ChemicalPage_URL>
http://potency.berkeley.edu/chempages/m-CRESIDINE.html

$$$$



 10 10  0  0  0  0  0  0  0  0999 V2000
    1.9929    0.0000    0.0000 N   0  0  0  0  0  0  0  0  0  0  0  0
    2.6571   -1.1490    0.0000 C   0  0  0  0  0  0  0  0  0  0  0  0
    3.9917   -1.1490    0.0000 C   0  0  0  0  0  0  0  0  0  0  0  0
    4.6560   -2.3040    0.0000 C   0  0  0  0  0  0  0  0  0  0  0  0
    3.9917   -3.4531    0.0000 C   0  0  0  0  0  0  0  0  0  0  0  0
    2.6571   -3.4531    0.0000 C   0  0  0  0  0  0  0  0  0  0  0  0
    1.9929   -2.3040    0.0000 C   0  0  0  0  0  0  0  0  0  0  0  0
    0.6643   -2.3040    0.0000 O   0  0  0  0  0  0  0  0  0  0  0  0
    0.0000   -3.4531    0.0000 C   0  0  0  0  0  0  0  0  0  0  0  0
    5.9845   -2.3040    0.0000 C   0  0  0  0  0  0  0  0  0  0  0  0
  1  2  1  0  0  0  0
  2  3  2  0  0  0  0
  2  7  1  0  0  0  0
  3  4  1  0  0  0  0
  4  5  2  0  0  0  0
  4 10  1  0  0  0  0
  5  6  1  0  0  0  0
  6  7  2  0  0  0  0
  7  8  1  0  0  0  0
  8  9  1  0  0  0  0
M  END
>  <DSSTox_RID>
20350

>  <DSSTox_CID>
350

>  <DSSTox_Generic_SID>
20350

>  <DSSTox_FileID>
363_CPDBAS_v5d

>  <STRUCTURE_Formula>
C8H11NO

>  <STRUCTURE_MolecularWeight>
137.179

>  <STRUCTURE_ChemicalType>
defined organic

>  <STRUCTURE_TestedForm_DefinedOrganic>
parent

>  <STRUCTURE_Shown>
tested chemical

>  <TestSubstance_ChemicalName>
p-Cresidine

>  <TestSubstance_CASRN>
120-71-8

>  <TestSubstance_Description>
single chemical compound

>  <STRUCTURE_ChemicalName_IUPAC>
2-methoxy-5-methylaniline

>  <STRUCTURE_SMILES>
NC1=CC(=CC=C1OC)C

>  <STRUCTURE_Parent_SMILES>
NC1=CC(=CC=C1OC)C

>  <STRUCTURE_InChI>
InChI=1/C8H11NO/c1-6-3-4-8(10-2)7(9)5-6/h3-5H,9H2,1-2H3

>  <STRUCTURE_InChIKey>
WXWCDTXEKCVRRO-UHFFFAOYAY

>  <StudyType>
Carcinogenicity

>  <Endpoint>
TD50; Tumor Target Sites

>  <Species>
rat; mouse

>  <ActivityOutcome_CPDBAS_Mutagenicity>
active

>  <TD50_Rat_mg>
98

>  <TD50_Rat_mmol>
0.714

>  <ActivityScore_CPDBAS_Rat>
27

>  <TD50_Rat_Note>
TD50 is harmonic mean of more than one positive test

>  <TargetSites_Rat_Male>
liver; nasal cavity; urinary bladder

>  <TargetSites_Rat_Female>
nasal cavity; urinary bladder

>  <ActivityOutcome_CPDBAS_Rat>
active

>  <TD50_Mouse_mg>
54.3

>  <TD50_Mouse_mmol>
0.396

>  <ActivityScore_CPDBAS_Mouse>
33

>  <TD50_Mouse_Note>
TD50 is harmonic mean of more than one positive test

>  <TargetSites_Mouse_Male>
urinary bladder

>  <TargetSites_Mouse_Female>
liver; urinary bladder

>  <ActivityOutcome_CPDBAS_Mouse>
active

>  <ActivityOutcome_CPDBAS_SingleCellCall>
active

>  <ActivityOutcome_CPDBAS_MultiCellCall>
active

>  <ActivityOutcome_CPDBAS_MultiCellCall_Details>
multisite active; multisex active; multispecies active

>  <NTP_TechnicalReport>
TR 142

>  <ChemicalPage_URL>
http://potency.berkeley.edu/chempages/p-CRESIDINE.html

$$$$



  5  4  0  0  0  0  0  0  0  0999 V2000
    0.0000   -0.6638    0.0000 C   0  0  0  0  0  0  0  0  0  0  0  0
    1.1525    0.0000    0.0000 C   0  0  0  0  0  0  0  0  0  0  0  0
    2.3050   -0.6638    0.0000 C   0  0  0  0  0  0  0  0  0  0  0  0
    3.4575    0.0000    0.0000 C   0  0  0  0  0  0  0  0  0  0  0  0
    4.6099   -0.6638    0.0000 O   0  0  0  0  0  0  0  0  0  0  0  0
  1  2  1  0  0  0  0
  2  3  2  0  0  0  0
  3  4  1  0  0  0  0
  4  5  2  0  0  0  0
M  END
>  <DSSTox_RID>
20351

>  <DSSTox_CID>
351

>  <DSSTox_Generic_SID>
20351

>  <DSSTox_FileID>
364_CPDBAS_v5d

>  <STRUCTURE_Formula>
C4H6O

>  <STRUCTURE_MolecularWeight>
70.0908

>  <STRUCTURE_ChemicalType>
defined organic

>  <STRUCTURE_TestedForm_DefinedOrganic>
parent

>  <STRUCTURE_Shown>
tested chemical

>  <TestSubstance_ChemicalName>
Crotonaldehyde

>  <TestSubstance_CASRN>
123-73-9

>  <TestSubstance_Description>
single chemical compound

>  <ChemicalNote>
stereochem

>  <STRUCTURE_ChemicalName_IUPAC>
(2E)-but-2-enal

>  <STRUCTURE_SMILES>
O=C/C=C/C

>  <STRUCTURE_Parent_SMILES>
O=C/C=C/C

>  <STRUCTURE_InChI>
InChI=1/C4H6O/c1-2-3-4-5/h2-4H,1H3/b3-2+

>  <STRUCTURE_InChIKey>
MLUCVPSAIODCQM-NSCUHMNNBQ

>  <StudyType>
Carcinogenicity

>  <Endpoint>
TD50; Tumor Target Sites

>  <Species>
rat

>  <TD50_Rat_mg>
4.2

>  <TD50_Rat_mmol>
0.0599

>  <ActivityScore_CPDBAS_Rat>
38

>  <TargetSites_Rat_Male>
liver

>  <ActivityOutcome_CPDBAS_Rat>
active

>  <ActivityOutcome_CPDBAS_SingleCellCall>
active

>  <ChemicalPage_URL>
http://potency.berkeley.edu/chempages/CROTONALDEHYDE.html

$$$$



 16 16  0  0  0  0  0  0  0  0999 V2000
    5.7576   -1.1826    0.0000 C   0  0  0  0  0  0  0  0  0  0  0  0
    4.6268   -0.5187    0.0000 N   0  0  0  0  0  0  0  0  0  0  0  0
    5.7576   -2.5313    0.0000 N   0  0  0  0  0  0  0  0  0  0  0  0
    3.4753   -2.5313    0.0000 N   0  0  0  0  0  0  0  0  0  0  0  0
    3.4753   -1.1826    0.0000 C   0  0  0  0  0  0  0  0  0  0  0  0
    4.6268   -3.1952    0.0000 C   0  0  0  0  0  0  0  0  0  0  0  0
   10.3740   -2.4586    0.0000 N   0  0  0  0  0  0  0  0  0  0  0  0
    6.9298   -0.5083    0.0000 N   0  0  0  0  0  0  0  0  0  0  0  0
    9.2432   -1.8362    0.0000 C   0  0  0  0  0  0  0  0  0  0  0  0
    8.0710   -1.1826    0.0000 C   0  0  0  0  0  0  0  0  0  0  0  0
    2.3030   -0.5083    0.0000 N   0  0  0  0  0  0  0  0  0  0  0  0
    4.6268   -4.5231    0.0000 Cl  0  0  0  0  0  0  0  0  0  0  0  0
    8.7245    0.0000    0.0000 C   0  0  0  0  0  0  0  0  0  0  0  0
    7.4485   -2.3134    0.0000 C   0  0  0  0  0  0  0  0  0  0  0  0
    1.1411   -1.1826    0.0000 C   0  0  0  0  0  0  0  0  0  0  0  0
    0.0000   -0.5083    0.0000 C   0  0  0  0  0  0  0  0  0  0  0  0
  1  2  1  0  0  0  0
  1  3  2  0  0  0  0
  1  8  1  0  0  0  0
  2  5  2  0  0  0  0
  3  6  1  0  0  0  0
  4  6  2  0  0  0  0
  4  5  1  0  0  0  0
  5 11  1  0  0  0  0
  6 12  1  0  0  0  0
  7  9  3  0  0  0  0
  8 10  1  0  0  0  0
  9 10  1  0  0  0  0
 10 13  1  0  0  0  0
 10 14  1  0  0  0  0
 11 15  1  0  0  0  0
 15 16  1  0  0  0  0
M  END
>  <DSSTox_RID>
40783

>  <DSSTox_CID>
3990

>  <DSSTox_Generic_SID>
23990

>  <DSSTox_FileID>
367_CPDBAS_v5d

>  <STRUCTURE_Formula>
C9H13ClN6

>  <STRUCTURE_MolecularWeight>
240.6927

>  <STRUCTURE_ChemicalType>
defined organic

>  <STRUCTURE_TestedForm_DefinedOrganic>
parent

>  <STRUCTURE_Shown>
tested chemical

>  <TestSubstance_ChemicalName>
Cyanazine

>  <TestSubstance_CASRN>
21725-46-2

>  <TestSubstance_Description>
single chemical compound

>  <STRUCTURE_ChemicalName_IUPAC>
2-{[4-chloro-6-(ethylamino)-1,3,5-triazin-2-yl]amino}-2-methylpropanenitrile

>  <STRUCTURE_SMILES>
Clc1nc(NCC)nc(NC(C)(C)C#N)n1

>  <STRUCTURE_Parent_SMILES>
Clc1nc(NCC)nc(NC(C)(C)C#N)n1

>  <STRUCTURE_InChI>
InChI=1/C9H13ClN6/c1-4-12-7-13-6(10)14-8(15-7)16-9(2,3)5-11/h4H2,1-3H3,(H2,12,13,14,15,16)/f/h12,16H

>  <STRUCTURE_InChIKey>
MZZBPDKVEFVLFF-KSKJGAJJCX

>  <StudyType>
Carcinogenicity

>  <Endpoint>
TD50; Tumor Target Sites

>  <Species>
rat

>  <TD50_Rat_mg>
6.33

>  <TD50_Rat_mmol>
0.0263

>  <ActivityScore_CPDBAS_Rat>
42

>  <TargetSites_Rat_Male>
no positive results

>  <TargetSites_Rat_Female>
mammary gland

>  <ActivityOutcome_CPDBAS_Rat>
active

>  <ActivityOutcome_CPDBAS_SingleCellCall>
active

>  <Note_CPDBAS>
Rat added v5a; chemical added v5a

>  <ChemicalPage_URL>
http://potency.berkeley.edu/chempages/CYANAZINE.html

$$$$



  6  5  0  0  0  0  0  0  0  0999 V2000
    3.3281   -2.3040    0.0000 C   0  0  0  0  0  0  0  0  0  0  0  0
    1.3266   -1.1543    0.0000 C   0  0  0  0  0  0  0  0  0  0  0  0
    1.9968   -2.3040    0.0000 N   0  0  0  0  0  0  0  0  0  0  0  0
    4.6546   -2.3040    0.0000 N   0  0  0  0  0  0  0  0  0  0  0  0
    1.9968    0.0000    0.0000 N   0  0  0  0  0  0  0  0  0  0  0  0
    0.0000   -1.1543    0.0000 N   0  0  0  0  0  0  0  0  0  0  0  0
  1  3  1  0  0  0  0
  1  4  3  0  0  0  0
  2  3  1  0  0  0  0
  2  5  2  0  0  0  0
  2  6  1  0  0  0  0
M  END
>  <DSSTox_RID>
20354

>  <DSSTox_CID>
354

>  <DSSTox_Generic_SID>
20354

>  <DSSTox_FileID>
368_CPDBAS_v5d

>  <STRUCTURE_Formula>
C2H4N4

>  <STRUCTURE_MolecularWeight>
84.08

>  <STRUCTURE_ChemicalType>
defined organic

>  <STRUCTURE_TestedForm_DefinedOrganic>
parent

>  <STRUCTURE_Shown>
tested chemical

>  <TestSubstance_ChemicalName>
Cyanoguanidine

>  <TestSubstance_CASRN>
461-58-5

>  <TestSubstance_Description>
single chemical compound

>  <STRUCTURE_ChemicalName_IUPAC>
1-cyanoguanidine

>  <STRUCTURE_SMILES>
NC(=N)NC#N

>  <STRUCTURE_Parent_SMILES>
NC(=N)NC#N

>  <STRUCTURE_InChI>
InChI=1/C2H4N4/c3-1-6-2(4)5/h(H4,4,5,6)/f/h4,6H,5H2

>  <STRUCTURE_InChIKey>
QGBSISYHAICWAH-WQGWMXMZCM

>  <StudyType>
Carcinogenicity

>  <Endpoint>
TD50; Tumor Target Sites

>  <Species>
rat

>  <ActivityScore_CPDBAS_Rat>
0

>  <TD50_Rat_Note>
no positive results

>  <TargetSites_Rat_Male>
no positive results

>  <TargetSites_Rat_Female>
no positive results

>  <ActivityOutcome_CPDBAS_Rat>
inactive

>  <ActivityOutcome_CPDBAS_SingleCellCall>
inactive

>  <ActivityOutcome_CPDBAS_MultiCellCall>
inactive

>  <ActivityOutcome_CPDBAS_MultiCellCall_Details>
multisex inactive

>  <Note_CPDBAS>
Rat added v3a; Mouse added v3a; chemical added v3a; CPDB uses retired CASRN [157480-33-6]

>  <ChemicalPage_URL>
http://potency.berkeley.edu/chempages/CYANOGUANIDINE.html

$$$$



 38 40  0  0  0  0  0  0  0  0999 V2000
    8.3860   -5.0107    0.0000 O   0  0  0  0  0  0  0  0  0  0  0  0
    4.7621   -5.5863    0.0000 O   0  0  0  0  0  0  0  0  0  0  0  0
    3.5585   -6.3713    0.0000 C   0  0  0  0  0  0  0  0  0  0  0  0
    3.5585   -7.7581    0.0000 C   0  0  0  0  0  0  0  0  0  0  0  0
    2.3549   -5.6779    0.0000 C   0  0  0  0  0  0  0  0  0  0  0  0
    2.3549   -8.4515    0.0000 C   0  0  0  0  0  0  0  0  0  0  0  0
    1.1513   -6.3713    0.0000 C   0  0  0  0  0  0  0  0  0  0  0  0
    1.1513   -7.7581    0.0000 C   0  0  0  0  0  0  0  0  0  0  0  0
    3.5585   -2.4988    0.0000 N   0  0  0  0  0  0  0  0  0  0  0  0
    3.5585   -3.8987    0.0000 C   0  0  0  0  0  0  0  0  0  0  0  0
    2.3549   -1.8054    0.0000 C   0  0  3  0  0  0  0  0  0  0  0  0
    2.3549   -4.5920    0.0000 C   0  0  3  0  0  0  0  0  0  0  0  0
    1.1513   -2.4988    0.0000 C   0  0  0  0  0  0  0  0  0  0  0  0
    1.1513   -3.8987    0.0000 N   0  0  0  0  0  0  0  0  0  0  0  0
    5.9657   -2.4988    0.0000 C   0  0  3  0  0  0  0  0  0  0  0  0
    5.9657   -3.8987    0.0000 N   0  0  0  0  0  0  0  0  0  0  0  0
    4.7621   -1.8054    0.0000 C   0  0  0  0  0  0  0  0  0  0  0  0
    4.7621   -4.5920    0.0000 C   0  0  0  0  0  0  0  0  0  0  0  0
    8.3730   -2.4988    0.0000 C   0  0  0  0  0  0  0  0  0  0  0  0
    8.3730   -3.8987    0.0000 C   0  0  0  0  0  0  0  0  0  0  0  0
    7.1694   -1.8054    0.0000 N   0  0  0  0  0  0  0  0  0  0  0  0
    7.1694   -4.5920    0.0000 C   0  0  3  0  0  0  0  0  0  0  0  0
    0.0000   -1.9886    0.0000 O   0  0  0  0  0  0  0  0  0  0  0  0
    2.3549   -0.7850    0.0000 C   0  0  0  0  0  0  0  0  0  0  0  0
    1.2559   -0.3271    0.0000 O   0  0  0  0  0  0  0  0  0  0  0  0
    4.7621   -0.8896    0.0000 O   0  0  0  0  0  0  0  0  0  0  0  0
    5.9788   -0.8896    0.0000 C   0  0  0  0  0  0  0  0  0  0  0  0
    7.1301    0.0000    0.0000 C   0  0  0  0  0  0  0  0  0  0  0  0
    7.1824   -5.6910    0.0000 C   0  0  0  0  0  0  0  0  0  0  0  0
    6.0181   -6.5937    0.0000 O   0  0  0  0  0  0  0  0  0  0  0  0
    9.7467   -2.5250    0.0000 C   0  0  3  0  0  0  0  0  0  0  0  0
    9.7336   -3.9117    0.0000 N   0  0  0  0  0  0  0  0  0  0  0  0
   11.0811   -2.1194    0.0000 C   0  0  3  0  0  0  0  0  0  0  0  0
   11.8791   -3.2445    0.0000 C   0  0  3  0  0  0  0  0  0  0  0  0
   11.0549   -4.3566    0.0000 C   0  0  0  0  0  0  0  0  0  0  0  0
   11.7221   -0.6280    0.0000 Cl  0  0  0  0  0  0  0  0  0  0  0  0
   13.0828   -3.2445    0.0000 Cl  0  0  0  0  0  0  0  0  0  0  0  0
    8.3599   -1.4129    0.0000 O   0  0  0  0  0  0  0  0  0  0  0  0
  1 20  2  0  0  0  0
  2 18  2  0  0  0  0
  3  4  1  0  0  0  0
  3  5  2  0  0  0  0
  4  6  2  0  0  0  0
  5  7  1  0  0  0  0
  5 12  1  0  0  0  0
  6  8  1  0  0  0  0
  7  8  2  0  0  0  0
  9 11  1  0  0  0  0
  9 17  1  0  0  0  0
 10 12  1  0  0  0  0
 10 18  1  0  0  0  0
 11 13  1  0  0  0  0
 11 24  1  0  0  0  0
 12 14  1  0  0  0  0
 13 14  1  0  0  0  0
 13 23  2  0  0  0  0
 15 17  1  0  0  0  0
 15 21  1  0  0  0  0
 15 27  1  0  0  0  0
 16 18  1  0  0  0  0
 16 22  1  0  0  0  0
 17 26  2  0  0  0  0
 19 21  1  0  0  0  0
 19 31  1  0  0  0  0
 19 38  2  0  0  0  0
 20 22  1  0  0  0  0
 20 32  1  0  0  0  0
 22 29  1  0  0  0  0
 24 25  1  0  0  0  0
 27 28  1  0  0  0  0
 29 30  1  0  0  0  0
 31 33  1  0  0  0  0
 31 32  1  0  0  0  0
 32 35  1  0  0  0  0
 33 34  1  0  0  0  0
 33 36  1  0  0  0  0
 34 35  1  0  0  0  0
 34 37  1  0  0  0  0
M  END
>  <DSSTox_RID>
20356

>  <DSSTox_CID>
356

>  <DSSTox_Generic_SID>
20356

>  <DSSTox_FileID>
370_CPDBAS_v5d

>  <STRUCTURE_Formula>
C24H31Cl2N5O7

>  <STRUCTURE_MolecularWeight>
572.4382

>  <STRUCTURE_ChemicalType>
defined organic

>  <STRUCTURE_TestedForm_DefinedOrganic>
parent

>  <STRUCTURE_Shown>
tested chemical

>  <TestSubstance_ChemicalName>
Cyclochlorotine

>  <TestSubstance_CASRN>
12663-46-6

>  <TestSubstance_Description>
single chemical compound

>  <STRUCTURE_ChemicalName_IUPAC>
17,18-dichloro-3-ethyl-6,13-bis(hydroxymethyl)-9-phenyldodecahydropyrrolo[1,2-d][1,4,7,10,13]pentaazacyclohexadecine-1,4,7,11,14(8H)-pentone

>  <STRUCTURE_SMILES>
O=C2C(CO)NC(=O)CC(NC(=O)C(CO)NC(=O)C(NC(=O)C1C(Cl)C(Cl)CN12)CC)c3ccccc3

>  <STRUCTURE_Parent_SMILES>
O=C2C(CO)NC(=O)CC(NC(=O)C(CO)NC(=O)C(NC(=O)C1C(Cl)C(Cl)CN12)CC)c3ccccc3

>  <STRUCTURE_InChI>
InChI=1/C24H31Cl2N5O7/c1-2-14-21(35)30-16(10-32)22(36)29-15(12-6-4-3-5-7-12)8-18(34)27-17(11-33)24(38)31-9-13(25)19(26)20(31)23(37)28-14/h3-7,13-17,19-20,32-33H,2,8-11H2,1H3,(H,27,34)(H,28,37)(H,29,36)(H,30,35)/f/h27-30H

>  <STRUCTURE_InChIKey>
PMBVHCCVEPYDSN-SWOWOAAGCB

>  <StudyType>
Carcinogenicity

>  <Endpoint>
TD50; Tumor Target Sites

>  <Species>
mouse

>  <TD50_Mouse_mg>
23.6

>  <TD50_Mouse_mmol>
0.0412

>  <ActivityScore_CPDBAS_Mouse>
44

>  <TargetSites_Mouse_Male>
liver

>  <ActivityOutcome_CPDBAS_Mouse>
active

>  <ActivityOutcome_CPDBAS_SingleCellCall>
active

>  <ChemicalPage_URL>
http://potency.berkeley.edu/chempages/CYCLOCHLOROTINE.html

$$$$



 16 18  0  0  1  0  0  0  0  0999 V2000
    6.1161   -2.2634    0.0000 C   0  0  0  0  0  0  0  0  0  0  0  0
    5.6923   -0.9921    0.0000 N   0  0  0  0  0  0  0  0  0  0  0  0
    4.3631   -0.9921    0.0000 C   0  0  1  0  0  0  0  0  0  0  0  0
    3.9490   -2.2634    0.0000 C   0  0  1  0  0  0  0  0  0  0  0  0
    7.4068   -2.5524    0.0000 N   0  0  0  0  0  0  0  0  0  0  0  0
    5.0277   -3.0147    0.0000 O   0  0  0  0  0  0  0  0  0  0  0  0
    3.2940   -0.2312    0.0000 O   0  0  0  0  0  0  0  0  0  0  0  0
    6.6073    0.0000    0.0000 C   0  0  0  0  0  0  0  0  0  0  0  0
    2.6198   -2.2634    0.0000 C   0  0  1  0  0  0  0  0  0  0  0  0
    8.2832   -1.5603    0.0000 C   0  0  0  0  0  0  0  0  0  0  0  0
    2.2442   -1.0306    0.0000 C   0  0  1  0  0  0  0  0  0  0  0  0
    7.8883   -0.3275    0.0000 C   0  0  0  0  0  0  0  0  0  0  0  0
    9.6317   -1.8300    0.0000 N   0  0  0  0  0  0  0  0  0  0  0  0
    1.8108   -3.3326    0.0000 O   0  0  0  0  0  0  0  0  0  0  0  0
    0.9246   -0.6935    0.0000 C   0  0  0  0  0  0  0  0  0  0  0  0
    0.0000   -1.6855    0.0000 O   0  0  0  0  0  0  0  0  0  0  0  0
  1  2  1  0  0  0  0
  1  5  2  0  0  0  0
  1  6  1  0  0  0  0
  3  2  1  1  0  0  0
  2  8  1  0  0  0  0
  3  7  1  0  0  0  0
  3  4  1  0  0  0  0
  4  6  1  1  0  0  0
  4  9  1  0  0  0  0
  5 10  1  0  0  0  0
  7 11  1  0  0  0  0
  8 12  2  0  0  0  0
  9 11  1  0  0  0  0
  9 14  1  6  0  0  0
 10 12  1  0  0  0  0
 10 13  2  0  0  0  0
 11 15  1  1  0  0  0
 15 16  1  0  0  0  0
M  END
>  <DSSTox_RID>
20357

>  <DSSTox_CID>
357

>  <DSSTox_Generic_SID>
20357

>  <DSSTox_FileID>
371_CPDBAS_v5d

>  <STRUCTURE_Formula>
C9H11N3O4

>  <STRUCTURE_MolecularWeight>
225.2013

>  <STRUCTURE_ChemicalType>
defined organic

>  <STRUCTURE_TestedForm_DefinedOrganic>
parent

>  <STRUCTURE_Shown>
tested chemical

>  <TestSubstance_ChemicalName>
Cyclocytidine

>  <TestSubstance_CASRN>
31698-14-3

>  <TestSubstance_Description>
single chemical compound

>  <ChemicalNote>
stereochem

>  <STRUCTURE_ChemicalName_IUPAC>
(2R,3R,3aS,9aR)-2-(hydroxymethyl)-6-imino-2,3,3a,9a-tetrahydro-6H-furo[2',3':4,5][1,3]oxazolo[3,2-a]pyrimidin-3-ol

>  <STRUCTURE_SMILES>
N=C\2/N=C3/O[C@H]1[C@H](O)[C@@H](CO)O[C@H]1N3/C=C/2

>  <STRUCTURE_Parent_SMILES>
N=C\2/N=C3/O[C@H]1[C@H](O)[C@@H](CO)O[C@H]1N3/C=C/2

>  <STRUCTURE_InChI>
InChI=1/C9H11N3O4/c10-5-1-2-12-8-7(16-9(12)11-5)6(14)4(3-13)15-8/h1-2,4,6-8,10,13-14H,3H2/t4-,6-,7+,8-/m1/s1

>  <STRUCTURE_InChIKey>
BBDAGFIXKZCXAH-CCXZUQQUBM

>  <StudyType>
Carcinogenicity

>  <Endpoint>
TD50; Tumor Target Sites

>  <Species>
rat

>  <ActivityScore_CPDBAS_Rat>
0

>  <TD50_Rat_Note>
no positive results

>  <TargetSites_Rat_Male>
no positive results

>  <TargetSites_Rat_Female>
no positive results

>  <ActivityOutcome_CPDBAS_Rat>
inactive

>  <ActivityOutcome_CPDBAS_SingleCellCall>
inactive

>  <ActivityOutcome_CPDBAS_MultiCellCall>
inactive

>  <ActivityOutcome_CPDBAS_MultiCellCall_Details>
multisex inactive

>  <Note_CPDBAS>
Rat added v2a

>  <ChemicalPage_URL>
http://potency.berkeley.edu/chempages/CYCLOCYTIDINE.html

$$$$



 77 84  0  0  1  0  0  0  0  0999 V2000
    7.8373   14.3139    0.0000 C   0  0  1  0  0  0  0  0  0  0  0  0
    7.8373   12.8807    0.0000 O   0  0  0  0  0  0  0  0  0  0  0  0
    6.6399   14.9851    0.0000 C   0  0  1  0  0  0  0  0  0  0  0  0
    6.6399   12.1732    0.0000 C   0  0  1  0  0  0  0  0  0  0  0  0
    5.4425   14.3139    0.0000 C   0  0  2  0  0  0  0  0  0  0  0  0
    5.4425   12.8807    0.0000 C   0  0  2  0  0  0  0  0  0  0  0  0
    9.0709   14.9851    0.0000 O   0  0  0  0  0  0  0  0  0  0  0  0
   10.2682   14.2595    0.0000 C   0  0  2  0  0  0  0  0  0  0  0  0
    9.0709   12.1732    0.0000 C   0  0  0  0  0  0  0  0  0  0  0  0
   10.2682   12.8807    0.0000 C   0  0  1  0  0  0  0  0  0  0  0  0
   11.5019   14.9851    0.0000 C   0  0  1  0  0  0  0  0  0  0  0  0
   12.6993   14.2595    0.0000 C   0  0  2  0  0  0  0  0  0  0  0  0
   11.5019   12.1732    0.0000 O   0  0  0  0  0  0  0  0  0  0  0  0
   12.6993   12.8807    0.0000 C   0  0  2  0  0  0  0  0  0  0  0  0
    6.6399   10.7763    0.0000 C   0  0  0  0  0  0  0  0  0  0  0  0
    9.0709   10.7763    0.0000 O   0  0  0  0  0  0  0  0  0  0  0  0
    7.8373   10.0869    0.0000 O   0  0  0  0  0  0  0  0  0  0  0  0
   12.5360    9.7422    0.0000 C   0  0  0  0  0  0  0  0  0  0  0  0
   11.8103    8.5267    0.0000 O   0  0  0  0  0  0  0  0  0  0  0  0
   13.9511    9.7422    0.0000 C   0  0  2  0  0  0  0  0  0  0  0  0
   13.9511   12.1732    0.0000 O   0  0  0  0  0  0  0  0  0  0  0  0
   14.6223   10.9758    0.0000 C   0  0  1  0  0  0  0  0  0  0  0  0
    4.1907    9.7422    0.0000 O   0  0  0  0  0  0  0  0  0  0  0  0
    4.1907   12.1732    0.0000 O   0  0  0  0  0  0  0  0  0  0  0  0
    3.4832   10.9758    0.0000 C   0  0  2  0  0  0  0  0  0  0  0  0
    3.4832    8.5267    0.0000 C   0  0  1  0  0  0  0  0  0  0  0  0
    2.0863    8.5267    0.0000 C   0  0  2  0  0  0  0  0  0  0  0  0
    2.0863   10.9758    0.0000 C   0  0  1  0  0  0  0  0  0  0  0  0
    1.3969    9.7422    0.0000 C   0  0  1  0  0  0  0  0  0  0  0  0
    5.6058    7.3111    0.0000 O   0  0  0  0  0  0  0  0  0  0  0  0
    4.1907    7.3111    0.0000 C   0  0  0  0  0  0  0  0  0  0  0  0
   12.5360    7.3111    0.0000 O   0  0  0  0  0  0  0  0  0  0  0  0
    6.2952    6.1139    0.0000 O   0  0  0  0  0  0  0  0  0  0  0  0
   14.6223    8.5267    0.0000 O   0  0  0  0  0  0  0  0  0  0  0  0
   13.9511    7.3111    0.0000 C   0  0  0  0  0  0  0  0  0  0  0  0
   16.0192    8.5267    0.0000 C   0  0  1  0  0  0  0  0  0  0  0  0
   16.0192   10.9758    0.0000 C   0  0  1  0  0  0  0  0  0  0  0  0
   16.7450    9.7422    0.0000 C   0  0  1  0  0  0  0  0  0  0  0  0
   14.6586    6.1139    0.0000 C   0  0  2  0  0  0  0  0  0  0  0  0
   16.7450    7.3111    0.0000 O   0  0  0  0  0  0  0  0  0  0  0  0
   16.0192    6.1139    0.0000 C   0  0  1  0  0  0  0  0  0  0  0  0
   13.9511    4.8802    0.0000 O   0  0  0  0  0  0  0  0  0  0  0  0
    5.6058    4.8802    0.0000 C   0  0  0  0  0  0  0  0  0  0  0  0
    4.1907    4.8802    0.0000 C   0  0  1  0  0  0  0  0  0  0  0  0
    3.4832    6.1139    0.0000 O   0  0  0  0  0  0  0  0  0  0  0  0
    2.0863    6.1139    0.0000 C   0  0  2  0  0  0  0  0  0  0  0  0
    1.3969    7.3111    0.0000 O   0  0  0  0  0  0  0  0  0  0  0  0
    3.4832    3.6647    0.0000 C   0  0  2  0  0  0  0  0  0  0  0  0
    1.3969    4.8802    0.0000 C   0  0  1  0  0  0  0  0  0  0  0  0
    2.0863    3.6647    0.0000 C   0  0  1  0  0  0  0  0  0  0  0  0
   14.6223    3.6828    0.0000 C   0  0  1  0  0  0  0  0  0  0  0  0
    4.1907    2.4673    0.0000 O   0  0  0  0  0  0  0  0  0  0  0  0
   16.7450    4.8802    0.0000 C   0  0  1  0  0  0  0  0  0  0  0  0
   16.0192    3.6647    0.0000 C   0  0  1  0  0  0  0  0  0  0  0  0
    6.6399   16.3821    0.0000 O   0  0  0  0  0  0  0  0  0  0  0  0
   11.5019   16.3821    0.0000 O   0  0  0  0  0  0  0  0  0  0  0  0
   13.9511   14.9851    0.0000 O   0  0  0  0  0  0  0  0  0  0  0  0
    4.1907   14.9851    0.0000 O   0  0  0  0  0  0  0  0  0  0  0  0
   16.7450   12.1732    0.0000 O   0  0  0  0  0  0  0  0  0  0  0  0
   18.1418    9.7422    0.0000 O   0  0  0  0  0  0  0  0  0  0  0  0
   18.1418    4.8802    0.0000 O   0  0  0  0  0  0  0  0  0  0  0  0
   16.7450    2.4310    0.0000 O   0  0  0  0  0  0  0  0  0  0  0  0
    1.3969    2.4310    0.0000 O   0  0  0  0  0  0  0  0  0  0  0  0
    0.0000    4.8802    0.0000 O   0  0  0  0  0  0  0  0  0  0  0  0
    0.0000    9.7422    0.0000 O   0  0  0  0  0  0  0  0  0  0  0  0
    1.3969   12.1732    0.0000 O   0  0  0  0  0  0  0  0  0  0  0  0
   13.9511    2.4310    0.0000 O   0  0  0  0  0  0  0  0  0  0  0  0
   12.0462    0.0000    0.0000 O   0  0  0  0  0  0  0  0  0  0  0  0
   10.6492    0.0000    0.0000 C   0  0  0  0  0  0  0  0  0  0  0  0
    9.9599    1.2337    0.0000 C   0  0  2  0  0  0  0  0  0  0  0  0
   10.6492    2.4129    0.0000 C   0  0  2  0  0  0  0  0  0  0  0  0
    8.5629    1.2337    0.0000 O   0  0  0  0  0  0  0  0  0  0  0  0
    7.8736    2.4129    0.0000 C   0  0  1  0  0  0  0  0  0  0  0  0
    9.9599    3.6647    0.0000 C   0  0  1  0  0  0  0  0  0  0  0  0
    8.5629    3.6647    0.0000 C   0  0  1  0  0  0  0  0  0  0  0  0
   10.6492    4.8620    0.0000 O   0  0  0  0  0  0  0  0  0  0  0  0
    7.8373    4.8620    0.0000 O   0  0  0  0  0  0  0  0  0  0  0  0
  1  3  1  0  0  0  0
  1  7  1  1  0  0  0
  1  2  1  0  0  0  0
  2  4  1  0  0  0  0
  3  5  1  0  0  0  0
  3 55  1  1  0  0  0
  4 15  1  6  0  0  0
  4  6  1  0  0  0  0
  5  6  1  0  0  0  0
  5 58  1  6  0  0  0
  6 24  1  1  0  0  0
  8  7  1  1  0  0  0
  8 11  1  0  0  0  0
  8 10  1  0  0  0  0
 10  9  1  6  0  0  0
  9 16  1  0  0  0  0
 10 13  1  0  0  0  0
 11 12  1  0  0  0  0
 11 56  1  6  0  0  0
 12 14  1  0  0  0  0
 12 57  1  1  0  0  0
 13 14  1  0  0  0  0
 14 21  1  1  0  0  0
 15 17  1  0  0  0  0
 20 18  1  6  0  0  0
 18 19  1  0  0  0  0
 20 34  1  0  0  0  0
 20 22  1  0  0  0  0
 22 21  1  1  0  0  0
 22 37  1  0  0  0  0
 23 25  1  0  0  0  0
 23 26  1  0  0  0  0
 25 24  1  1  0  0  0
 25 28  1  0  0  0  0
 26 31  1  6  0  0  0
 26 27  1  0  0  0  0
 27 29  1  0  0  0  0
 27 47  1  1  0  0  0
 28 29  1  0  0  0  0
 28 66  1  1  0  0  0
 29 65  1  6  0  0  0
 30 31  1  0  0  0  0
 32 35  1  0  0  0  0
 33 43  1  0  0  0  0
 34 36  1  0  0  0  0
 39 35  1  6  0  0  0
 36 38  1  0  0  0  0
 36 40  1  1  0  0  0
 37 38  1  0  0  0  0
 37 59  1  6  0  0  0
 38 60  1  1  0  0  0
 39 41  1  0  0  0  0
 39 42  1  0  0  0  0
 41 40  1  1  0  0  0
 41 53  1  0  0  0  0
 42 51  1  0  0  0  0
 44 43  1  6  0  0  0
 44 45  1  0  0  0  0
 44 48  1  0  0  0  0
 45 46  1  0  0  0  0
 46 47  1  1  0  0  0
 46 49  1  0  0  0  0
 48 50  1  0  0  0  0
 48 52  1  1  0  0  0
 49 50  1  0  0  0  0
 49 64  1  1  0  0  0
 50 63  1  6  0  0  0
 51 54  1  0  0  0  0
 51 67  1  1  0  0  0
 73 52  1  6  0  0  0
 53 54  1  0  0  0  0
 53 61  1  6  0  0  0
 54 62  1  1  0  0  0
 71 67  1  6  0  0  0
 68 69  1  0  0  0  0
 70 69  1  1  0  0  0
 70 71  1  0  0  0  0
 70 72  1  0  0  0  0
 71 74  1  0  0  0  0
 72 73  1  0  0  0  0
 73 75  1  0  0  0  0
 74 75  1  0  0  0  0
 74 76  1  1  0  0  0
 75 77  1  6  0  0  0
M  END
>  <DSSTox_RID>
20358

>  <DSSTox_CID>
358

>  <DSSTox_Generic_SID>
20358

>  <DSSTox_FileID>
372_CPDBAS_v5d

>  <STRUCTURE_Formula>
C42H70O35

>  <STRUCTURE_MolecularWeight>
1134.9842

>  <STRUCTURE_ChemicalType>
defined organic

>  <STRUCTURE_TestedForm_DefinedOrganic>
parent

>  <STRUCTURE_Shown>
tested chemical

>  <TestSubstance_ChemicalName>
beta-Cyclodextrin

>  <TestSubstance_CASRN>
7585-39-9

>  <TestSubstance_Description>
single chemical compound

>  <ChemicalNote>
stereochem

>  <STRUCTURE_ChemicalName_IUPAC>
Cycloheptaamylose

>  <STRUCTURE_SMILES>
O[C@@H]8[C@@H](O)[C@@H]1O[C@H](CO)[C@H]8O[C@H]7O[C@H](CO)[C@@H](O[C@H]6O[C@H](CO)[C@@H](O[C@H]5O[C@H](CO)[C@@H](O[C@H]4O[C@H](CO)[C@@H](O[C@H]3O[C@H](CO)[C@@H](O[C@H]2O[C@H](CO)[C@@H](O1)[C@H](O)[C@H]2O)[C@H](O)[C@H]3O)[C@H](O)[C@H]4O)[C@H](O)[C@H]5O)[C

>  <STRUCTURE_Parent_SMILES>
O[C@@H]8[C@@H](O)[C@@H]1O[C@H](CO)[C@H]8O[C@H]7O[C@H](CO)[C@@H](O[C@H]6O[C@H](CO)[C@@H](O[C@H]5O[C@H](CO)[C@@H](O[C@H]4O[C@H](CO)[C@@H](O[C@H]3O[C@H](CO)[C@@H](O[C@H]2O[C@H](CO)[C@@H](O1)[C@H](O)[C@H]2O)[C@H](O)[C@H]3O)[C@H](O)[C@H]4O)[C@H](O)[C@H]5O)[C

>  <STRUCTURE_InChI>
InChI=1/C42H70O35/c43-1-8-29-15(50)22(57)36(64-8)72-30-9(2-44)66-38(24(59)17(30)52)74-32-11(4-46)68-40(26(61)19(32)54)76-34-13(6-48)70-42(28(63)21(34)56)77-35-14(7-49)69-41(27(62)20(35)55)75-33-12(5-47)67-39(25(60)18(33)53)73-31-10(3-45)65-37(71-29)23(58)16(31)51/h8-63H,1-7H2/t8-,9-,10-,11-,12-,13-,14-,15-,16-,17-,18-,19-,20-,21-,22-,23-,24-,25-,26-,27-,28-,29-,30-,31-,32-,33-,34-,35-,36-,37-,38-,39-,40-,41-,42-/m1/s1

>  <STRUCTURE_InChIKey>
WHGYBXFWUBPSRW-FOUAGVGXBA

>  <StudyType>
Carcinogenicity

>  <Endpoint>
TD50; Tumor Target Sites

>  <Species>
rat; mouse

>  <ActivityScore_CPDBAS_Rat>
0

>  <TD50_Rat_Note>
no positive results

>  <TargetSites_Rat_Male>
no positive results

>  <TargetSites_Rat_Female>
no positive results

>  <ActivityOutcome_CPDBAS_Rat>
inactive

>  <ActivityScore_CPDBAS_Mouse>
0

>  <TD50_Mouse_Note>
no positive results

>  <TargetSites_Mouse_Male>
no positive results

>  <TargetSites_Mouse_Female>
no positive results

>  <ActivityOutcome_CPDBAS_Mouse>
inactive

>  <ActivityOutcome_CPDBAS_SingleCellCall>
inactive

>  <ActivityOutcome_CPDBAS_MultiCellCall>
inactive

>  <ActivityOutcome_CPDBAS_MultiCellCall_Details>
multisex inactive; multispecies inactive

>  <Note_CPDBAS>
Rat added v2a; Mouse added v2a

>  <ChemicalPage_URL>
http://potency.berkeley.edu/chempages/beta-CYCLODEXTRIN.html

$$$$



  7  7  0  0  0  0  0  0  0  0999 V2000
    0.0000   -1.1496    0.0000 O   0  0  0  0  0  0  0  0  0  0  0  0
    1.3292   -1.1496    0.0000 C   0  0  0  0  0  0  0  0  0  0  0  0
    1.9958    0.0000    0.0000 C   0  0  0  0  0  0  0  0  0  0  0  0
    3.3250    0.0000    0.0000 C   0  0  0  0  0  0  0  0  0  0  0  0
    3.9916   -1.1496    0.0000 C   0  0  0  0  0  0  0  0  0  0  0  0
    3.3250   -2.3032    0.0000 C   0  0  0  0  0  0  0  0  0  0  0  0
    1.9958   -2.3032    0.0000 C   0  0  0  0  0  0  0  0  0  0  0  0
  1  2  2  0  0  0  0
  2  3  1  0  0  0  0
  2  7  1  0  0  0  0
  3  4  1  0  0  0  0
  4  5  1  0  0  0  0
  5  6  1  0  0  0  0
  6  7  1  0  0  0  0
M  END
>  <DSSTox_RID>
20359

>  <DSSTox_CID>
359

>  <DSSTox_Generic_SID>
20359

>  <DSSTox_FileID>
373_CPDBAS_v5d

>  <STRUCTURE_Formula>
C6H10O

>  <STRUCTURE_MolecularWeight>
98.143

>  <STRUCTURE_ChemicalType>
defined organic

>  <STRUCTURE_TestedForm_DefinedOrganic>
parent

>  <STRUCTURE_Shown>
tested chemical

>  <TestSubstance_ChemicalName>
Cyclohexanone

>  <TestSubstance_CASRN>
108-94-1

>  <TestSubstance_Description>
single chemical compound

>  <STRUCTURE_ChemicalName_IUPAC>
cyclohexanone

>  <STRUCTURE_SMILES>
O=C1CCCCC1

>  <STRUCTURE_Parent_SMILES>
O=C1CCCCC1

>  <STRUCTURE_InChI>
InChI=1/C6H10O/c7-6-4-2-1-3-5-6/h1-5H2

>  <STRUCTURE_InChIKey>
JHIVVAPYMSGYDF-UHFFFAOYAY

>  <StudyType>
Carcinogenicity

>  <Endpoint>
TD50; Tumor Target Sites

>  <Species>
rat; mouse

>  <ActivityOutcome_CPDBAS_Mutagenicity>
inactive

>  <ActivityScore_CPDBAS_Rat>
0

>  <TD50_Rat_Note>
no positive results

>  <TargetSites_Rat_Male>
no positive results

>  <TargetSites_Rat_Female>
no positive results

>  <ActivityOutcome_CPDBAS_Rat>
inactive

>  <ActivityScore_CPDBAS_Mouse>
0

>  <TD50_Mouse_Note>
no positive results

>  <TargetSites_Mouse_Male>
no positive results

>  <TargetSites_Mouse_Female>
no positive results

>  <ActivityOutcome_CPDBAS_Mouse>
inactive

>  <ActivityOutcome_CPDBAS_SingleCellCall>
inactive

>  <ActivityOutcome_CPDBAS_MultiCellCall>
inactive

>  <ActivityOutcome_CPDBAS_MultiCellCall_Details>
multisex inactive; multispecies inactive

>  <ChemicalPage_URL>
http://potency.berkeley.edu/chempages/CYCLOHEXANONE.html

$$$$



 17 19  0  0  0  0  0  0  0  0999 V2000
    3.5644   -2.4073    0.0000 N   0  0  0  0  0  0  0  0  0  0  0  0
    4.3496   -1.3328    0.0000 C   0  0  0  0  0  0  0  0  0  0  0  0
    5.6824   -1.3328    0.0000 S   0  0  0  0  0  0  0  0  0  0  0  0
    6.3436   -2.4899    0.0000 N   0  0  0  0  0  0  0  0  0  0  0  0
    7.6764   -2.4899    0.0000 C   0  0  0  0  0  0  0  0  0  0  0  0
    8.3376   -1.3328    0.0000 C   0  0  0  0  0  0  0  0  0  0  0  0
    9.6704   -1.3328    0.0000 C   0  0  0  0  0  0  0  0  0  0  0  0
   10.3316   -2.4899    0.0000 C   0  0  0  0  0  0  0  0  0  0  0  0
    9.6704   -3.6367    0.0000 C   0  0  0  0  0  0  0  0  0  0  0  0
    8.3376   -3.6367    0.0000 C   0  0  0  0  0  0  0  0  0  0  0  0
    3.5644   -0.2583    0.0000 S   0  0  0  0  0  0  0  0  0  0  0  0
    2.3039   -0.6716    0.0000 C   0  0  0  0  0  0  0  0  0  0  0  0
    2.3039   -1.9940    0.0000 C   0  0  0  0  0  0  0  0  0  0  0  0
    1.1468   -2.6655    0.0000 C   0  0  0  0  0  0  0  0  0  0  0  0
    0.0000   -1.9940    0.0000 C   0  0  0  0  0  0  0  0  0  0  0  0
    0.0000   -0.6716    0.0000 C   0  0  0  0  0  0  0  0  0  0  0  0
    1.1468    0.0000    0.0000 C   0  0  0  0  0  0  0  0  0  0  0  0
  1  2  2  0  0  0  0
  1 13  1  0  0  0  0
  2  3  1  0  0  0  0
  2 11  1  0  0  0  0
  3  4  1  0  0  0  0
  4  5  1  0  0  0  0
  5  6  1  0  0  0  0
  5 10  1  0  0  0  0
  6  7  1  0  0  0  0
  7  8  1  0  0  0  0
  8  9  1  0  0  0  0
  9 10  1  0  0  0  0
 11 12  1  0  0  0  0
 12 13  2  0  0  0  0
 12 17  1  0  0  0  0
 13 14  1  0  0  0  0
 14 15  2  0  0  0  0
 15 16  1  0  0  0  0
 16 17  2  0  0  0  0
M  END
>  <DSSTox_RID>
20360

>  <DSSTox_CID>
360

>  <DSSTox_Generic_SID>
20360

>  <DSSTox_FileID>
374_CPDBAS_v5d

>  <STRUCTURE_Formula>
C13H16N2S2

>  <STRUCTURE_MolecularWeight>
264.4095

>  <STRUCTURE_ChemicalType>
defined organic

>  <STRUCTURE_TestedForm_DefinedOrganic>
parent

>  <STRUCTURE_Shown>
tested chemical

>  <TestSubstance_ChemicalName>
N-Cyclohexyl-2-benzothiazole sulfenamide

>  <TestSubstance_CASRN>
95-33-0

>  <TestSubstance_Description>
single chemical compound

>  <STRUCTURE_ChemicalName_IUPAC>
N-(1,3-benzothiazol-2-ylthio)cyclohexanamine

>  <STRUCTURE_SMILES>
N1=C(SNC2CCCCC2)SC3=C1C=CC=C3

>  <STRUCTURE_Parent_SMILES>
N1=C(SNC2CCCCC2)SC3=C1C=CC=C3

>  <STRUCTURE_InChI>
InChI=1/C13H16N2S2/c1-2-6-10(7-3-1)15-17-13-14-11-8-4-5-9-12(11)16-13/h4-5,8-10,15H,1-3,6-7H2

>  <STRUCTURE_InChIKey>
DEQZTKGFXNUBJL-UHFFFAOYAC

>  <StudyType>
Carcinogenicity

>  <Endpoint>
TD50; Tumor Target Sites

>  <Species>
mouse

>  <ActivityScore_CPDBAS_Mouse>
0

>  <TD50_Mouse_Note>
no positive results

>  <TargetSites_Mouse_Male>
no positive results

>  <TargetSites_Mouse_Female>
no positive results

>  <ActivityOutcome_CPDBAS_Mouse>
inactive

>  <ActivityOutcome_CPDBAS_SingleCellCall>
inactive

>  <ActivityOutcome_CPDBAS_MultiCellCall>
inactive

>  <ActivityOutcome_CPDBAS_MultiCellCall_Details>
multisex inactive

>  <ChemicalPage_URL>
http://potency.berkeley.edu/chempages/N-CYCLOHEXYL-2-BENZOTHIAZOLE%20SULFENAMIDE.html

$$$$



  7  7  0  0  0  0  0  0  0  0999 V2000
    0.0000   -2.2427    0.0000 C   0  0  0  0  0  0  0  0  0  0  0  0
    1.2194   -1.7157    0.0000 C   0  0  0  0  0  0  0  0  0  0  0  0
    0.1462   -3.5737    0.0000 C   0  0  0  0  0  0  0  0  0  0  0  0
    2.1003   -2.6927    0.0000 C   0  0  0  0  0  0  0  0  0  0  0  0
    1.4425   -3.8468    0.0000 C   0  0  0  0  0  0  0  0  0  0  0  0
    1.4887   -0.4001    0.0000 N   0  0  0  0  0  0  0  0  0  0  0  0
    2.7581    0.0000    0.0000 O   0  0  0  0  0  0  0  0  0  0  0  0
  1  2  1  0  0  0  0
  1  3  1  0  0  0  0
  2  4  1  0  0  0  0
  2  6  2  0  0  0  0
  3  5  1  0  0  0  0
  4  5  1  0  0  0  0
  6  7  1  0  0  0  0
M  END
>  <DSSTox_RID>
20363

>  <DSSTox_CID>
363

>  <DSSTox_Generic_SID>
20363

>  <DSSTox_FileID>
377_CPDBAS_v5d

>  <STRUCTURE_Formula>
C5H9NO

>  <STRUCTURE_MolecularWeight>
99.1311

>  <STRUCTURE_ChemicalType>
defined organic

>  <STRUCTURE_TestedForm_DefinedOrganic>
parent

>  <STRUCTURE_Shown>
tested chemical

>  <TestSubstance_ChemicalName>
Cyclopentanone oxime

>  <TestSubstance_CASRN>
1192-28-5

>  <TestSubstance_Description>
single chemical compound

>  <STRUCTURE_ChemicalName_IUPAC>
cyclopentanone oxime

>  <STRUCTURE_SMILES>
O\N=C1\CCCC1

>  <STRUCTURE_Parent_SMILES>
O\N=C1\CCCC1

>  <STRUCTURE_InChI>
InChI=1/C5H9NO/c7-6-5-3-1-2-4-5/h7H,1-4H2

>  <STRUCTURE_InChIKey>
YGNXYFLJZILPEK-UHFFFAOYAT

>  <StudyType>
Carcinogenicity

>  <Endpoint>
TD50; Tumor Target Sites

>  <Species>
rat

>  <TD50_Rat_mg>
40.9

>  <TD50_Rat_mmol>
0.413

>  <ActivityScore_CPDBAS_Rat>
30

>  <TargetSites_Rat_Male>
liver

>  <ActivityOutcome_CPDBAS_Rat>
active

>  <ActivityOutcome_CPDBAS_SingleCellCall>
active

>  <Note_CPDBAS>
Rat added v2a

>  <ChemicalPage_URL>
http://potency.berkeley.edu/chempages/CYCLOPENTANONE%20OXIME.html

$$$$



 25 27  0  0  0  0  0  0  0  0999 V2000
    5.6808   -3.9930    0.0000 C   0  0  0  0  0  0  0  0  0  0  0  0
    5.6808   -5.3206    0.0000 O   0  0  0  0  0  0  0  0  0  0  0  0
    4.5281   -3.3344    0.0000 C   0  0  0  0  0  0  0  0  0  0  0  0
    3.3858   -3.9930    0.0000 C   0  0  0  0  0  0  0  0  0  0  0  0
    4.5384   -2.0068    0.0000 C   0  0  0  0  0  0  0  0  0  0  0  0
    2.2332   -3.3344    0.0000 C   0  0  0  0  0  0  0  0  0  0  0  0
    3.3755   -1.3379    0.0000 C   0  0  0  0  0  0  0  0  0  0  0  0
    2.2332   -2.0068    0.0000 C   0  0  0  0  0  0  0  0  0  0  0  0
    6.8334   -3.3241    0.0000 N   0  0  0  0  0  0  0  0  0  0  0  0
    1.0806   -4.0033    0.0000 O   0  0  0  0  0  0  0  0  0  0  0  0
    1.0806   -5.3206    0.0000 C   0  0  0  0  0  0  0  0  0  0  0  0
    0.0000   -6.1027    0.0000 C   0  0  0  0  0  0  0  0  0  0  0  0
    0.4116   -7.3685    0.0000 C   0  0  0  0  0  0  0  0  0  0  0  0
    1.7495   -7.3685    0.0000 C   0  0  0  0  0  0  0  0  0  0  0  0
    2.1509   -6.1027    0.0000 C   0  0  0  0  0  0  0  0  0  0  0  0
   10.2912   -5.3206    0.0000 N   0  0  0  0  0  0  0  0  0  0  0  0
    9.1386   -5.9895    0.0000 C   0  0  0  0  0  0  0  0  0  0  0  0
   10.2912   -3.9930    0.0000 C   0  0  0  0  0  0  0  0  0  0  0  0
    9.1386   -3.3241    0.0000 C   0  0  0  0  0  0  0  0  0  0  0  0
    7.9860   -5.3206    0.0000 C   0  0  0  0  0  0  0  0  0  0  0  0
    7.9860   -3.9930    0.0000 C   0  0  0  0  0  0  0  0  0  0  0  0
    9.1386   -1.9965    0.0000 Cl  0  0  0  0  0  0  0  0  0  0  0  0
    6.8334   -5.9895    0.0000 Cl  0  0  0  0  0  0  0  0  0  0  0  0
    1.0806   -1.3379    0.0000 O   0  0  0  0  0  0  0  0  0  0  0  0
    1.0806    0.0000    0.0000 C   0  0  0  0  0  0  0  0  0  0  0  0
  1  2  2  0  0  0  0
  1  3  1  0  0  0  0
  1  9  1  0  0  0  0
  3  4  2  0  0  0  0
  3  5  1  0  0  0  0
  4  6  1  0  0  0  0
  5  7  2  0  0  0  0
  6  8  2  0  0  0  0
  6 10  1  0  0  0  0
  7  8  1  0  0  0  0
  8 24  1  0  0  0  0
  9 21  1  0  0  0  0
 10 11  1  0  0  0  0
 11 12  1  0  0  0  0
 11 15  1  0  0  0  0
 12 13  1  0  0  0  0
 13 14  1  0  0  0  0
 14 15  1  0  0  0  0
 16 17  2  0  0  0  0
 16 18  1  0  0  0  0
 17 20  1  0  0  0  0
 18 19  2  0  0  0  0
 19 21  1  0  0  0  0
 19 22  1  0  0  0  0
 20 21  2  0  0  0  0
 20 23  1  0  0  0  0
 24 25  1  0  0  0  0
M  END
>  <DSSTox_RID>
40784

>  <DSSTox_CID>
20227

>  <DSSTox_Generic_SID>
40227

>  <DSSTox_FileID>
378_CPDBAS_v5d

>  <STRUCTURE_Formula>
C18H18Cl2N2O3

>  <STRUCTURE_MolecularWeight>
381.2531

>  <STRUCTURE_ChemicalType>
defined organic

>  <STRUCTURE_TestedForm_DefinedOrganic>
parent

>  <STRUCTURE_Shown>
tested chemical

>  <TestSubstance_ChemicalName>
3-(Cyclopentyloxy)-N-(3,5-di-chloro-4-pyridyl)-4-methoxy-benzamide

>  <TestSubstance_CASRN>
144035-83-6

>  <TestSubstance_Description>
single chemical compound

>  <STRUCTURE_ChemicalName_IUPAC>
3-(cyclopentyloxy)-N-(3,5-dichloropyridin-4-yl)-4-methoxybenzamide

>  <STRUCTURE_SMILES>
O=C(NC2=C(Cl)C=NC=C2Cl)C1=CC(OC3CCCC3)=C(OC)C=C1

>  <STRUCTURE_Parent_SMILES>
O=C(NC2=C(Cl)C=NC=C2Cl)C1=CC(OC3CCCC3)=C(OC)C=C1

>  <STRUCTURE_InChI>
InChI=1/C18H18Cl2N2O3/c1-24-15-7-6-11(8-16(15)25-12-4-2-3-5-12)18(23)22-17-13(19)9-21-10-14(17)20/h6-10,12H,2-5H2,1H3,(H,21,22,23)/f/h22H

>  <STRUCTURE_InChIKey>
RRRUXBQSQLKHEL-QWOVJGMICP

>  <StudyType>
Carcinogenicity

>  <Endpoint>
TD50; Tumor Target Sites

>  <Species>
rat

>  <TD50_Rat_mg>
1.54

>  <TD50_Rat_mmol>
0.00404

>  <ActivityScore_CPDBAS_Rat>
50

>  <TD50_Rat_Note>
TD50 is harmonic mean of more than one positive test

>  <TargetSites_Rat_Male>
nasal cavity

>  <TargetSites_Rat_Female>
nasal cavity

>  <ActivityOutcome_CPDBAS_Rat>
active

>  <ActivityOutcome_CPDBAS_SingleCellCall>
active

>  <ActivityOutcome_CPDBAS_MultiCellCall>
active

>  <ActivityOutcome_CPDBAS_MultiCellCall_Details>
multisex active

>  <Note_CPDBAS>
Rat added v5a; chemical added v5a

>  <ChemicalPage_URL>
http://potency.berkeley.edu/chempages/3-(CYCLOPENTYLOXY)-N-(3%2C5-DICHLORO-4-PYRIDYL)-4-ME.html

$$$$



 14 14  0  0  0  0  0  0  0  0999 V2000
    6.6332   -4.5371    0.0000 Cl  0  0  0  0  0  0  0  0  0  0  0  0
    5.7776   -3.5156    0.0000 C   0  0  0  0  0  0  0  0  0  0  0  0
    4.4708   -3.7478    0.0000 C   0  0  0  0  0  0  0  0  0  0  0  0
    3.6151   -2.7329    0.0000 N   0  0  0  0  0  0  0  0  0  0  0  0
    4.0662   -1.4792    0.0000 C   0  0  0  0  0  0  0  0  0  0  0  0
    5.3796   -1.2470    0.0000 C   0  0  0  0  0  0  0  0  0  0  0  0
    5.8306    0.0000    0.0000 Cl  0  0  0  0  0  0  0  0  0  0  0  0
    2.3017   -2.9584    0.0000 P   0  0  3  0  0  0  0  0  0  0  0  0
    2.7594   -4.2121    0.0000 O   0  0  0  0  0  0  0  0  0  0  0  0
    1.1542   -3.6284    0.0000 N   0  0  0  0  0  0  0  0  0  0  0  0
    0.0000   -2.9584    0.0000 C   0  0  0  0  0  0  0  0  0  0  0  0
    0.0000   -1.6318    0.0000 C   0  0  0  0  0  0  0  0  0  0  0  0
    1.1542   -0.9685    0.0000 C   0  0  0  0  0  0  0  0  0  0  0  0
    2.3017   -1.6318    0.0000 O   0  0  0  0  0  0  0  0  0  0  0  0
  1  2  1  0  0  0  0
  2  3  1  0  0  0  0
  3  4  1  0  0  0  0
  4  5  1  0  0  0  0
  4  8  1  0  0  0  0
  5  6  1  0  0  0  0
  6  7  1  0  0  0  0
  8  9  2  0  0  0  0
  8 10  1  0  0  0  0
  8 14  1  0  0  0  0
 10 11  1  0  0  0  0
 11 12  1  0  0  0  0
 12 13  1  0  0  0  0
 13 14  1  0  0  0  0
M  END
>  <DSSTox_RID>
20364

>  <DSSTox_CID>
364

>  <DSSTox_Generic_SID>
20364

>  <DSSTox_FileID>
379_CPDBAS_v5d

>  <STRUCTURE_Formula>
C7H15Cl2N2O2P

>  <STRUCTURE_MolecularWeight>
261.086

>  <STRUCTURE_ChemicalType>
defined organic

>  <STRUCTURE_TestedForm_DefinedOrganic>
parent

>  <STRUCTURE_Shown>
tested chemical

>  <TestSubstance_ChemicalName>
Cyclophosphamide

>  <TestSubstance_CASRN>
50-18-0

>  <TestSubstance_Description>
single chemical compound

>  <STRUCTURE_ChemicalName_IUPAC>
N,N-bis(2-chloroethyl)-1,3,2-oxazaphosphinan-2-amine 2-oxide

>  <STRUCTURE_SMILES>
ClCCN(CCCl)[P]1(=O)NCCCO1

>  <STRUCTURE_Parent_SMILES>
ClCCN(CCCl)[P]1(=O)NCCCO1

>  <STRUCTURE_InChI>
InChI=1/C7H15Cl2N2O2P/c8-2-5-11(6-3-9)14(12)10-4-1-7-13-14/h1-7H2,(H,10,12)/f/h10H

>  <STRUCTURE_InChIKey>
CMSMOCZEIVJLDB-KZFATGLACB

>  <StudyType>
Carcinogenicity

>  <Endpoint>
TD50; Tumor Target Sites

>  <Species>
rat; mouse; rhesus; cynomolgus

>  <ActivityOutcome_CPDBAS_Mutagenicity>
active

>  <TD50_Rat_mg>
2.21

>  <TD50_Rat_mmol>
0.00846

>  <ActivityScore_CPDBAS_Rat>
47

>  <TD50_Rat_Note>
TD50 is harmonic mean of more than one positive test; greater than ten-fold variation among TD50 values for positive results

>  <TargetSites_Rat_Male>
all tumor bearing animals

>  <TargetSites_Rat_Female>
all tumor bearing animals

>  <TargetSites_Rat_BothSexes>
hematopoietic system; nervous system; urinary bladder

>  <ActivityOutcome_CPDBAS_Rat>
active

>  <TD50_Mouse_mg>
5.96

>  <TD50_Mouse_mmol>
0.0228

>  <ActivityScore_CPDBAS_Mouse>
47

>  <TD50_Mouse_Note>
positive test results only by intraperitoneal or intravenous injection; TD50 is harmonic mean of more than one positive test

>  <TargetSites_Mouse_Male>
lung

>  <TargetSites_Mouse_Female>
hematopoietic system; lung

>  <ActivityOutcome_CPDBAS_Mouse>
active

>  <TargetSites_Rhesus>
no positive results

>  <TargetSites_Cynomolgus>
no positive results

>  <TD50_Dog_Primates_Note>
no positive results for Rhesus and Cynomolgus

>  <ActivityOutcome_CPDBAS_Dog_Primates>
inactive

>  <ActivityOutcome_CPDBAS_SingleCellCall>
active

>  <ActivityOutcome_CPDBAS_MultiCellCall>
active

>  <ActivityOutcome_CPDBAS_MultiCellCall_Details>
multisite active; multisex active; multispecies active

>  <ChemicalPage_URL>
http://potency.berkeley.edu/chempages/CYCLOPHOSPHAMIDE.html

$$$$



 86 86  0  0  1  0  0  0  0  0999 V2000
   12.5911   -5.9979    0.0000 C   0  0  2  0  0  0  0  0  0  0  0  0
   11.4885   -6.6594    0.0000 N   0  0  0  0  0  0  0  0  0  0  0  0
   13.8039   -6.6594    0.0000 C   0  0  0  0  0  0  0  0  0  0  0  0
   12.6131   -4.6748    0.0000 C   0  0  1  0  0  0  0  0  0  0  0  0
   10.3419   -5.9979    0.0000 C   0  0  0  0  0  0  0  0  0  0  0  0
   11.4885   -8.0045    0.0000 C   0  0  0  0  0  0  0  0  0  0  0  0
   14.9285   -5.9979    0.0000 N   0  0  0  0  0  0  0  0  0  0  0  0
   13.7818   -8.0045    0.0000 O   0  0  0  0  0  0  0  0  0  0  0  0
   13.7818   -4.0133    0.0000 C   0  0  1  0  0  0  0  0  0  0  0  0
   11.4885   -4.0133    0.0000 O   0  0  0  0  0  0  0  0  0  0  0  0
    9.1952   -6.6594    0.0000 C   0  0  1  0  0  0  0  0  0  0  0  0
   10.3419   -4.6748    0.0000 O   0  0  0  0  0  0  0  0  0  0  0  0
   16.0751   -6.6594    0.0000 C   0  0  2  0  0  0  0  0  0  0  0  0
   13.7818   -2.6902    0.0000 C   0  0  0  0  0  0  0  0  0  0  0  0
   14.9285   -4.6748    0.0000 C   0  0  0  0  0  0  0  0  0  0  0  0
    8.0486   -5.9979    0.0000 N   0  0  0  0  0  0  0  0  0  0  0  0
    9.1952   -8.0045    0.0000 C   0  0  0  0  0  0  0  0  0  0  0  0
   17.2438   -5.9979    0.0000 C   0  0  0  0  0  0  0  0  0  0  0  0
   16.0751   -8.0045    0.0000 C   0  0  0  0  0  0  0  0  0  0  0  0
   12.6352   -2.0066    0.0000 C   0  0  0  0  0  0  0  0  0  0  0  0
    6.9019   -6.6594    0.0000 C   0  0  0  0  0  0  0  0  0  0  0  0
    8.0486   -4.6748    0.0000 C   0  0  0  0  0  0  0  0  0  0  0  0
    8.0486   -8.6881    0.0000 C   0  0  0  0  0  0  0  0  0  0  0  0
   10.3198   -8.6660    0.0000 C   0  0  0  0  0  0  0  0  0  0  0  0
   18.3684   -6.6594    0.0000 N   0  0  0  0  0  0  0  0  0  0  0  0
   17.2438   -4.6748    0.0000 O   0  0  0  0  0  0  0  0  0  0  0  0
   15.5680   -8.7101    0.0000 C   0  0  0  0  0  0  0  0  0  0  0  0
   12.6793   -0.6836    0.0000 C   0  0  0  0  0  0  0  0  0  0  0  0
    5.7553   -5.9979    0.0000 C   0  0  1  0  0  0  0  0  0  0  0  0
    6.9019   -8.0045    0.0000 O   0  0  0  0  0  0  0  0  0  0  0  0
   18.3684   -8.3132    0.0000 C   0  0  0  0  0  0  0  0  0  0  0  0
   19.5151   -5.9979    0.0000 C   0  0  0  0  0  0  0  0  0  0  0  0
   11.5767    0.0000    0.0000 C   0  0  0  0  0  0  0  0  0  0  0  0
    4.5866   -6.6594    0.0000 N   0  0  0  0  0  0  0  0  0  0  0  0
    5.7332   -4.6748    0.0000 C   0  0  0  0  0  0  0  0  0  0  0  0
   19.4710   -9.5701    0.0000 C   0  0  0  0  0  0  0  0  0  0  0  0
    4.5866   -8.0045    0.0000 C   0  0  0  0  0  0  0  0  0  0  0  0
    3.4399   -5.9979    0.0000 C   0  0  0  0  0  0  0  0  0  0  0  0
    4.5866   -4.0574    0.0000 C   0  0  0  0  0  0  0  0  0  0  0  0
   18.6771  -11.0696    0.0000 N   0  0  0  0  0  0  0  0  0  0  0  0
   20.5735   -9.5260    0.0000 O   0  0  0  0  0  0  0  0  0  0  0  0
    3.4179   -8.6440    0.0000 C   0  0  1  0  0  0  0  0  0  0  0  0
    5.7553   -8.6881    0.0000 O   0  0  0  0  0  0  0  0  0  0  0  0
    3.4399   -4.7410    0.0000 C   0  0  0  0  0  0  0  0  0  0  0  0
    4.5425   -2.7784    0.0000 C   0  0  0  0  0  0  0  0  0  0  0  0
   18.6771  -12.3706    0.0000 C   0  0  2  0  0  0  0  0  0  0  0  0
   17.6187  -10.3198    0.0000 C   0  0  0  0  0  0  0  0  0  0  0  0
    3.4399   -9.9891    0.0000 N   0  0  0  0  0  0  0  0  0  0  0  0
    2.2933   -8.0045    0.0000 C   0  0  0  0  0  0  0  0  0  0  0  0
   17.5305  -13.0321    0.0000 C   0  0  0  0  0  0  0  0  0  0  0  0
   19.8017  -13.0542    0.0000 C   0  0  0  0  0  0  0  0  0  0  0  0
    4.5866  -10.6506    0.0000 C   0  0  0  0  0  0  0  0  0  0  0  0
    2.3153  -10.6947    0.0000 C   0  0  0  0  0  0  0  0  0  0  0  0
    1.1466   -8.7101    0.0000 C   0  0  0  0  0  0  0  0  0  0  0  0
   16.4059  -12.3926    0.0000 N   0  0  0  0  0  0  0  0  0  0  0  0
   17.5084  -14.3111    0.0000 O   0  0  0  0  0  0  0  0  0  0  0  0
   20.9484  -12.4147    0.0000 C   0  0  0  0  0  0  0  0  0  0  0  0
    4.5866  -11.9737    0.0000 C   0  0  2  0  0  0  0  0  0  0  0  0
    5.7553   -9.9891    0.0000 O   0  0  0  0  0  0  0  0  0  0  0  0
    0.0000   -8.0706    0.0000 C   0  0  0  0  0  0  0  0  0  0  0  0
    1.1687  -10.0111    0.0000 C   0  0  0  0  0  0  0  0  0  0  0  0
   15.2813  -13.0762    0.0000 C   0  0  2  0  0  0  0  0  0  0  0  0
   22.0509  -13.0762    0.0000 C   0  0  0  0  0  0  0  0  0  0  0  0
   20.9484  -11.1137    0.0000 C   0  0  0  0  0  0  0  0  0  0  0  0
    6.0640  -13.0321    0.0000 N   0  0  0  0  0  0  0  0  0  0  0  0
    3.4840  -12.5911    0.0000 C   0  0  0  0  0  0  0  0  0  0  0  0
   14.1346  -12.4367    0.0000 C   0  0  0  0  0  0  0  0  0  0  0  0
   15.3254  -14.3772    0.0000 C   0  0  0  0  0  0  0  0  0  0  0  0
    7.2107  -12.3926    0.0000 C   0  0  0  0  0  0  0  0  0  0  0  0
   12.9880  -13.0321    0.0000 N   0  0  0  0  0  0  0  0  0  0  0  0
   14.1346  -11.1137    0.0000 O   0  0  0  0  0  0  0  0  0  0  0  0
   16.4500  -15.0167    0.0000 C   0  0  0  0  0  0  0  0  0  0  0  0
   14.2449  -15.0608    0.0000 C   0  0  0  0  0  0  0  0  0  0  0  0
    8.3794  -12.9880    0.0000 C   0  0  1  0  0  0  0  0  0  0  0  0
    7.2107  -11.0475    0.0000 O   0  0  0  0  0  0  0  0  0  0  0  0
   11.8414  -12.3926    0.0000 C   0  0  2  0  0  0  0  0  0  0  0  0
   12.9880  -14.3772    0.0000 C   0  0  0  0  0  0  0  0  0  0  0  0
    9.5701  -12.3926    0.0000 N   0  0  0  0  0  0  0  0  0  0  0  0
    8.3794  -14.3772    0.0000 C   0  0  0  0  0  0  0  0  0  0  0  0
   10.6727  -13.0321    0.0000 C   0  0  0  0  0  0  0  0  0  0  0  0
   11.8634  -11.0916    0.0000 C   0  0  0  0  0  0  0  0  0  0  0  0
   10.6727  -14.3772    0.0000 O   0  0  0  0  0  0  0  0  0  0  0  0
   13.0101  -10.4301    0.0000 C   0  0  0  0  0  0  0  0  0  0  0  0
   13.0762   -9.0850    0.0000 C   0  0  0  0  0  0  0  0  0  0  0  0
   14.2449  -10.2757    0.0000 C   0  0  0  0  0  0  0  0  0  0  0  0
   13.5172   -5.0717    0.0000 H   0  0  0  0  0  0  0  0  0  0  0  0
  1  2  1  0  0  0  0
  1  3  1  0  0  0  0
  1  4  1  0  0  0  0
  1 86  1  6  0  0  0
  2  5  1  0  0  0  0
  2  6  1  0  0  0  0
  3  7  1  0  0  0  0
  3  8  2  0  0  0  0
  4  9  1  0  0  0  0
  4 10  1  6  0  0  0
  5 11  1  0  0  0  0
  5 12  2  0  0  0  0
  7 13  1  0  0  0  0
  9 14  1  0  0  0  0
  9 15  1  1  0  0  0
 11 16  1  0  0  0  0
 11 17  1  6  0  0  0
 13 18  1  0  0  0  0
 13 19  1  6  0  0  0
 14 20  1  0  0  0  0
 16 21  1  0  0  0  0
 16 22  1  0  0  0  0
 17 23  1  0  0  0  0
 17 24  1  0  0  0  0
 18 25  1  0  0  0  0
 18 26  2  0  0  0  0
 19 27  1  0  0  0  0
 20 28  2  0  0  0  0
 21 29  1  0  0  0  0
 21 30  2  0  0  0  0
 25 31  1  0  0  0  0
 25 32  1  0  0  0  0
 28 33  1  0  0  0  0
 29 34  1  0  0  0  0
 29 35  1  1  0  0  0
 31 36  1  0  0  0  0
 34 37  1  0  0  0  0
 34 38  1  0  0  0  0
 35 39  1  0  0  0  0
 36 40  1  0  0  0  0
 36 41  2  0  0  0  0
 37 42  1  0  0  0  0
 37 43  2  0  0  0  0
 39 44  1  0  0  0  0
 39 45  1  0  0  0  0
 40 46  1  0  0  0  0
 40 47  1  0  0  0  0
 42 48  1  0  0  0  0
 42 49  1  1  0  0  0
 46 50  1  0  0  0  0
 46 51  1  1  0  0  0
 48 52  1  0  0  0  0
 48 53  1  0  0  0  0
 49 54  1  0  0  0  0
 50 55  1  0  0  0  0
 50 56  2  0  0  0  0
 51 57  1  0  0  0  0
 52 58  1  0  0  0  0
 52 59  2  0  0  0  0
 54 60  1  0  0  0  0
 54 61  1  0  0  0  0
 55 62  1  0  0  0  0
 57 63  1  0  0  0  0
 57 64  1  0  0  0  0
 58 65  1  0  0  0  0
 58 66  1  6  0  0  0
 62 67  1  0  0  0  0
 62 68  1  1  0  0  0
 65 69  1  0  0  0  0
 67 70  1  0  0  0  0
 67 71  2  0  0  0  0
 68 72  1  0  0  0  0
 68 73  1  0  0  0  0
 69 74  1  0  0  0  0
 69 75  2  0  0  0  0
 70 76  1  0  0  0  0
 70 77  1  0  0  0  0
 74 78  1  0  0  0  0
 74 79  1  1  0  0  0
 76 80  1  0  0  0  0
 76 81  1  6  0  0  0
 78 80  1  0  0  0  0
 80 82  2  0  0  0  0
 81 83  1  0  0  0  0
 83 84  1  0  0  0  0
 83 85  1  0  0  0  0
M  END
>  <DSSTox_RID>
20365

>  <DSSTox_CID>
365

>  <DSSTox_Generic_SID>
20365

>  <DSSTox_FileID>
380_CPDBAS_v5d

>  <STRUCTURE_Formula>
C62H111N11O12

>  <STRUCTURE_MolecularWeight>
1202.6112

>  <STRUCTURE_ChemicalType>
defined organic

>  <STRUCTURE_TestedForm_DefinedOrganic>
parent

>  <STRUCTURE_Shown>
tested chemical

>  <TestSubstance_ChemicalName>
Cyclosporin A

>  <TestSubstance_CASRN>
59865-13-3

>  <TestSubstance_Description>
single chemical compound

>  <ChemicalNote>
stereochem

>  <STRUCTURE_ChemicalName_IUPAC>
(3S,6S,9S,12R,15S,18S,21S,24S,30S,33S)-30-ethyl-33-[(1R,2R,4E)-1-hydroxy-2-methylhex-4-en-1-yl]-6,9,18,24-tetraisobutyl-3,21-diisopropyl-1,4,7,10,12,15,19,25,28-nonamethyl-1,4,7,10,13,16,19,22,25,28,31-undecaazacyclotritriacontane-2,5,8,11,14,17,20,23,2

>  <STRUCTURE_SMILES>
C[C@H](C\C=C\C)[C@@H](O)[C@@H]1N(C)C(=O)[C@H](C(C)C)N(C)C(=O)[C@H](CC(C)C)N(C)C(=O)[C@H](CC(C)C)N(C)C(=O)[C@@H](C)NC(=O)[C@H](C)NC(=O)[C@H](CC(C)C)N(C)C(=O)[C@@H](NC(=O)[C@H](CC(C)C)N(C)C(=O)CN(C)C(=O)[C@H](CC)NC1=O)C(C)C

>  <STRUCTURE_Parent_SMILES>
C[C@H](C\C=C\C)[C@@H](O)[C@@H]1N(C)C(=O)[C@H](C(C)C)N(C)C(=O)[C@H](CC(C)C)N(C)C(=O)[C@H](CC(C)C)N(C)C(=O)[C@@H](C)NC(=O)[C@H](C)NC(=O)[C@H](CC(C)C)N(C)C(=O)[C@@H](NC(=O)[C@H](CC(C)C)N(C)C(=O)CN(C)C(=O)[C@H](CC)NC1=O)C(C)C

>  <STRUCTURE_InChI>
InChI=1/C62H111N11O12/c1-25-27-28-40(15)52(75)51-56(79)65-43(26-2)58(81)67(18)33-48(74)68(19)44(29-34(3)4)55(78)66-49(38(11)12)61(84)69(20)45(30-35(5)6)54(77)63-41(16)53(76)64-42(17)57(80)70(21)46(31-36(7)8)59(82)71(22)47(32-37(9)10)60(83)72(23)50(39(13)14)62(85)73(51)24/h25,27,34-47,49-52,75H,26,28-33H2,1-24H3,(H,63,77)(H,64,76)(H,65,79)(H,66,78)/b27-25+/t40-,41+,42-,43+,44+,45+,46+,47+,49+,50+,51+,52-/m1/s1/f/h63-66H

>  <STRUCTURE_InChIKey>
PMATZTZNYRCHOR-HXPUBHAIDY

>  <StudyType>
Carcinogenicity

>  <Endpoint>
TD50; Tumor Target Sites

>  <Species>
rat; mouse

>  <ActivityOutcome_CPDBAS_Mutagenicity>
inactive

>  <ActivityScore_CPDBAS_Rat>
0

>  <TD50_Rat_Note>
no positive results

>  <TargetSites_Rat_Male>
no positive results

>  <TargetSites_Rat_Female>
no positive results

>  <ActivityOutcome_CPDBAS_Rat>
inactive

>  <ActivityScore_CPDBAS_Mouse>
0

>  <TD50_Mouse_Note>
no positive results

>  <TargetSites_Mouse_Male>
no positive results

>  <TargetSites_Mouse_Female>
no positive results

>  <ActivityOutcome_CPDBAS_Mouse>
inactive

>  <ActivityOutcome_CPDBAS_SingleCellCall>
inactive

>  <ActivityOutcome_CPDBAS_MultiCellCall>
inactive

>  <ActivityOutcome_CPDBAS_MultiCellCall_Details>
multisex inactive; multispecies inactive

>  <Note_CPDBAS>
Mutagenicity_SAL_CPDB added v3a

>  <ChemicalPage_URL>
http://potency.berkeley.edu/chempages/CYCLOSPORIN%20A.html

$$$$



 32 36  0  0  1  0  0  0  0  0999 V2000
    3.4617   -4.7310    0.0000 C   0  0  2  0  0  0  0  0  0  0  0  0
    3.4617   -6.0696    0.0000 C   0  0  0  0  0  0  0  0  0  0  0  0
    2.3424   -4.0733    0.0000 C   0  0  2  0  0  0  0  0  0  0  0  0
    1.1539   -4.7656    0.0000 C   0  0  1  0  0  0  0  0  0  0  0  0
    6.9004   -2.7463    0.0000 C   0  0  2  0  0  0  0  0  0  0  0  0
    4.6272   -4.0733    0.0000 C   0  0  2  0  0  0  0  0  0  0  0  0
    5.7580   -4.7656    0.0000 C   0  0  1  0  0  0  0  0  0  0  0  0
    1.1539   -3.4387    0.0000 C   0  0  0  0  0  0  0  0  0  0  0  0
    4.6272   -6.7388    0.0000 C   0  0  0  0  0  0  0  0  0  0  0  0
    2.3424   -6.7388    0.0000 C   0  0  0  0  0  0  0  0  0  0  0  0
    8.1351   -2.3309    0.0000 C   0  0  2  0  0  0  0  0  0  0  0  0
    5.7580   -6.1042    0.0000 C   0  0  0  0  0  0  0  0  0  0  0  0
    6.9004   -4.0733    0.0000 C   0  0  2  0  0  0  0  0  0  0  0  0
    1.1539   -6.0696    0.0000 C   0  0  0  0  0  0  0  0  0  0  0  0
    5.7349   -2.1232    0.0000 C   0  0  0  0  0  0  0  0  0  0  0  0
    4.6272   -2.7463    0.0000 C   0  0  0  0  0  0  0  0  0  0  0  0
    8.9197   -3.4387    0.0000 C   0  0  0  0  0  0  0  0  0  0  0  0
    8.1351   -4.4887    0.0000 C   0  0  0  0  0  0  0  0  0  0  0  0
    8.5851   -1.1885    0.0000 C   0  0  0  0  0  0  0  0  0  0  0  0
    0.0000   -6.8888    0.0000 O   0  0  0  0  0  0  0  0  0  0  0  0
    7.8927    0.0000    0.0000 O   0  0  0  0  0  0  0  0  0  0  0  0
    4.6272   -8.0889    0.0000 Cl  0  0  0  0  0  0  0  0  0  0  0  0
    9.5544   -2.3309    0.0000 O   0  0  0  0  0  0  0  0  0  0  0  0
    3.4848   -3.3579    0.0000 C   0  0  0  0  0  0  0  0  0  0  0  0
    6.9004   -1.5462    0.0000 C   0  0  0  0  0  0  0  0  0  0  0  0
    9.9352   -1.1885    0.0000 C   0  0  0  0  0  0  0  0  0  0  0  0
    4.6272   -5.4234    0.0000 H   0  0  0  0  0  0  0  0  0  0  0  0
    5.7580   -3.4387    0.0000 H   0  0  0  0  0  0  0  0  0  0  0  0
    6.9004   -5.4234    0.0000 H   0  0  0  0  0  0  0  0  0  0  0  0
   10.2121   -3.4848    0.0000 C   0  0  0  0  0  0  0  0  0  0  0  0
   11.5391   -3.4848    0.0000 C   0  0  0  0  0  0  0  0  0  0  0  0
    9.5544   -4.6387    0.0000 O   0  0  0  0  0  0  0  0  0  0  0  0
  1  2  1  0  0  0  0
  1  3  1  0  0  0  0
  1  6  1  0  0  0  0
  1 24  1  1  0  0  0
  2  9  1  0  0  0  0
  2 10  2  0  0  0  0
  3  4  1  0  0  0  0
  3  8  1  6  0  0  0
  4 14  1  0  0  0  0
  4  8  1  6  0  0  0
  5 15  1  0  0  0  0
  5 11  1  0  0  0  0
  5 25  1  1  0  0  0
  5 13  1  0  0  0  0
  6  7  1  0  0  0  0
  6 16  1  0  0  0  0
  6 27  1  6  0  0  0
  7 12  1  0  0  0  0
  7 13  1  0  0  0  0
  7 28  1  1  0  0  0
  9 22  1  0  0  0  0
  9 12  2  0  0  0  0
 10 14  1  0  0  0  0
 11 19  1  1  0  0  0
 11 23  1  6  0  0  0
 11 17  1  0  0  0  0
 13 18  1  0  0  0  0
 13 29  1  6  0  0  0
 14 20  2  0  0  0  0
 15 16  1  0  0  0  0
 17 18  1  0  0  0  0
 19 21  2  0  0  0  0
 19 26  1  0  0  0  0
 23 30  1  0  0  0  0
 30 31  1  0  0  0  0
 30 32  2  0  0  0  0
M  END
>  <DSSTox_RID>
20366

>  <DSSTox_CID>
366

>  <DSSTox_Generic_SID>
20366

>  <DSSTox_FileID>
381_CPDBAS_v5d

>  <STRUCTURE_Formula>
C24H29ClO4

>  <STRUCTURE_MolecularWeight>
416.9377

>  <STRUCTURE_ChemicalType>
defined organic

>  <STRUCTURE_TestedForm_DefinedOrganic>
parent

>  <STRUCTURE_Shown>
tested chemical

>  <TestSubstance_ChemicalName>
Cyproterone acetate

>  <TestSubstance_CASRN>
427-51-0

>  <TestSubstance_Description>
single chemical compound

>  <ChemicalNote>
stereochem, parent [2098-66-0]

>  <STRUCTURE_ChemicalName_IUPAC>
(1R,3aS,3bR,7aR,8aS,8bS,8cS,10aS)-1-acetyl-5-chloro-8b,10a-dimethyl-7-oxo-1,2,3,3a,3b,7,7a,8,8a,8b,8c,9,10,10a-tetradecahydrocyclopenta[a]cyclopropa[g]phenanthren-1-yl acetate

>  <STRUCTURE_SMILES>
O=C1[C@H]3[C@H](C3)[C@@]([C@]4([H])[C@@]([C@@]5([H])[C@]([C@@](CC5)(OC(C)=O)[C@@](C)=O)(C)CC4)([H])C=C2Cl)(C)C2=C1

>  <STRUCTURE_Parent_SMILES>
O=C1[C@H]3[C@H](C3)[C@@]([C@]4([H])[C@@]([C@@]5([H])[C@]([C@@](CC5)(OC(C)=O)[C@@](C)=O)(C)CC4)([H])C=C2Cl)(C)C2=C1

>  <STRUCTURE_InChI>
InChI=1/C24H29ClO4/c1-12(26)24(29-13(2)27)8-6-16-14-10-20(25)19-11-21(28)15-9-18(15)23(19,4)17(14)5-7-22(16,24)3/h10-11,14-18H,5-9H2,1-4H3/t14-,15+,16-,17-,18-,22-,23-,24-/m0/s1

>  <STRUCTURE_InChIKey>
UWFYSQMTEOIJJG-FDTZYFLXBD

>  <StudyType>
Carcinogenicity

>  <Endpoint>
TD50; Tumor Target Sites

>  <Species>
mouse

>  <TD50_Mouse_mg>
21.9

>  <TD50_Mouse_mmol>
0.0525

>  <ActivityScore_CPDBAS_Mouse>
43

>  <TD50_Mouse_Note>
TD50 is harmonic mean of more than one positive test

>  <TargetSites_Mouse_Male>
liver; stomach

>  <TargetSites_Mouse_Female>
liver; stomach

>  <ActivityOutcome_CPDBAS_Mouse>
active

>  <ActivityOutcome_CPDBAS_SingleCellCall>
active

>  <ActivityOutcome_CPDBAS_MultiCellCall>
active

>  <ActivityOutcome_CPDBAS_MultiCellCall_Details>
multisite active; multisex active

>  <Note_CPDBAS>
Rat added v2a; Mouse added v2a; TD50_Mouse modified v3a; structure modified v5b

>  <ChemicalPage_URL>
http://potency.berkeley.edu/chempages/CYPROTERONE%20ACETATE.html

$$$$



 13 13  0  0  0  0  0  0  0  0999 V2000
    0.0000   -3.9000    0.0000 C   0  0  0  0  0  0  0  0  0  0  0  0
    0.9384   -2.9616    0.0000 N   0  0  0  0  0  0  0  0  0  0  0  0
    0.5990   -1.6771    0.0000 C   0  0  0  0  0  0  0  0  0  0  0  0
    2.2229   -3.3077    0.0000 N   0  0  0  0  0  0  0  0  0  0  0  0
    3.1613   -2.3626    0.0000 N   0  0  0  0  0  0  0  0  0  0  0  0
    4.4258   -2.7753    0.0000 C   0  0  0  0  0  0  0  0  0  0  0  0
    5.5040   -1.9966    0.0000 C   0  0  0  0  0  0  0  0  0  0  0  0
    6.5821   -2.7753    0.0000 N   0  0  0  0  0  0  0  0  0  0  0  0
    6.1695   -4.0398    0.0000 C   0  0  0  0  0  0  0  0  0  0  0  0
    4.8384   -4.0398    0.0000 N   0  0  0  0  0  0  0  0  0  0  0  0
    5.5040   -0.6655    0.0000 C   0  0  0  0  0  0  0  0  0  0  0  0
    4.3526    0.0000    0.0000 N   0  0  0  0  0  0  0  0  0  0  0  0
    6.6553    0.0000    0.0000 O   0  0  0  0  0  0  0  0  0  0  0  0
  1  2  1  0  0  0  0
  2  3  1  0  0  0  0
  2  4  1  0  0  0  0
  4  5  2  0  0  0  0
  5  6  1  0  0  0  0
  6  7  2  0  0  0  0
  6 10  1  0  0  0  0
  7  8  1  0  0  0  0
  7 11  1  0  0  0  0
  8  9  1  0  0  0  0
  9 10  2  0  0  0  0
 11 12  1  0  0  0  0
 11 13  2  0  0  0  0
M  END
>  <DSSTox_RID>
20369

>  <DSSTox_CID>
369

>  <DSSTox_Generic_SID>
20369

>  <DSSTox_FileID>
384_CPDBAS_v5d

>  <STRUCTURE_Formula>
C6H10N6O

>  <STRUCTURE_MolecularWeight>
182.1832

>  <STRUCTURE_ChemicalType>
defined organic

>  <STRUCTURE_TestedForm_DefinedOrganic>
parent

>  <STRUCTURE_Shown>
tested chemical

>  <TestSubstance_ChemicalName>
Dacarbazine

>  <TestSubstance_CASRN>
4342-03-4

>  <TestSubstance_Description>
single chemical compound

>  <ChemicalNote>
tautomers

>  <STRUCTURE_ChemicalName_IUPAC>
4-[(1E)-3,3-dimethyltriaz-1-en-1-yl]-1H-imidazole-5-carboxamide

>  <STRUCTURE_SMILES>
O=C(N)C1=C(N=CN1)/N=N/N(C)C

>  <STRUCTURE_Parent_SMILES>
O=C(N)C1=C(N=CN1)/N=N/N(C)C

>  <STRUCTURE_InChI>
InChI=1/C6H10N6O/c1-12(2)11-10-6-4(5(7)13)8-3-9-6/h3H,1-2H3,(H2,7,13)(H,8,9)/b11-10+/f/h8H,7H2

>  <STRUCTURE_InChIKey>
FDKXTQMXEQVLRF-WXKHNMGTDH

>  <StudyType>
Carcinogenicity

>  <Endpoint>
TD50; Tumor Target Sites

>  <Species>
rat; mouse

>  <ActivityOutcome_CPDBAS_Mutagenicity>
active

>  <TD50_Rat_mg>
0.71

>  <TD50_Rat_mmol>
0.0039

>  <ActivityScore_CPDBAS_Rat>
51

>  <TargetSites_Rat_Female>
hematopoietic system; mammary gland; uterus

>  <ActivityOutcome_CPDBAS_Rat>
active

>  <TD50_Mouse_mg>
0.966

>  <TD50_Mouse_mmol>
0.0053

>  <ActivityScore_CPDBAS_Mouse>
54

>  <TD50_Mouse_Note>
positive test results only by intraperitoneal or intravenous injection; TD50 is harmonic mean of more than one positive test

>  <TargetSites_Mouse_Male>
hematopoietic system; lung; vascular system

>  <TargetSites_Mouse_Female>
hematopoietic system; lung; uterus; vascular system

>  <ActivityOutcome_CPDBAS_Mouse>
active

>  <ActivityOutcome_CPDBAS_SingleCellCall>
active

>  <ActivityOutcome_CPDBAS_MultiCellCall>
active

>  <ActivityOutcome_CPDBAS_MultiCellCall_Details>
multisite active; multisex active; multispecies active

>  <ChemicalPage_URL>
http://potency.berkeley.edu/chempages/DACARBAZINE.html

$$$$



 11 10  0  0  0  0  0  0  0  0999 V2000
    3.4621   -3.3249    0.0000 O   0  0  0  0  0  0  0  0  0  0  0  0
    3.4621   -1.9933    0.0000 C   0  0  0  0  0  0  0  0  0  0  0  0
    4.6081   -1.3316    0.0000 C   0  0  0  0  0  0  0  0  0  0  0  0
    5.7622   -1.9933    0.0000 C   0  0  0  0  0  0  0  0  0  0  0  0
    6.9162   -1.3316    0.0000 C   0  0  0  0  0  0  0  0  0  0  0  0
    6.9162    0.0000    0.0000 O   0  0  0  0  0  0  0  0  0  0  0  0
    8.0702   -1.9933    0.0000 O   0  0  0  0  0  0  0  0  0  0  0  0
    2.3081   -1.3316    0.0000 N   0  0  0  0  0  0  0  0  0  0  0  0
    1.1540   -1.9933    0.0000 N   0  0  0  0  0  0  0  0  0  0  0  0
    1.1540   -3.3249    0.0000 C   0  0  0  0  0  0  0  0  0  0  0  0
    0.0000   -1.3316    0.0000 C   0  0  0  0  0  0  0  0  0  0  0  0
  1  2  2  0  0  0  0
  2  3  1  0  0  0  0
  2  8  1  0  0  0  0
  3  4  1  0  0  0  0
  4  5  1  0  0  0  0
  5  6  2  0  0  0  0
  5  7  1  0  0  0  0
  8  9  1  0  0  0  0
  9 10  1  0  0  0  0
  9 11  1  0  0  0  0
M  END
>  <DSSTox_RID>
20370

>  <DSSTox_CID>
370

>  <DSSTox_Generic_SID>
20370

>  <DSSTox_FileID>
385_CPDBAS_v5d

>  <STRUCTURE_Formula>
C6H12N2O3

>  <STRUCTURE_MolecularWeight>
160.1711

>  <STRUCTURE_ChemicalType>
defined organic

>  <STRUCTURE_TestedForm_DefinedOrganic>
parent

>  <STRUCTURE_Shown>
tested chemical

>  <TestSubstance_ChemicalName>
Daminozide

>  <TestSubstance_CASRN>
1596-84-5

>  <TestSubstance_Description>
single chemical compound

>  <STRUCTURE_ChemicalName_IUPAC>
4-(2,2-dimethylhydrazino)-4-oxobutanoic acid

>  <STRUCTURE_SMILES>
O=C(CCC(=O)O)NN(C)C

>  <STRUCTURE_Parent_SMILES>
O=C(CCC(=O)O)NN(C)C

>  <STRUCTURE_InChI>
InChI=1/C6H12N2O3/c1-8(2)7-5(9)3-4-6(10)11/h3-4H2,1-2H3,(H,7,9)(H,10,11)/f/h7,10H

>  <STRUCTURE_InChIKey>
NOQGZXFMHARMLW-BVBTXPNWCL

>  <StudyType>
Carcinogenicity

>  <Endpoint>
TD50; Tumor Target Sites

>  <Species>
rat; mouse

>  <ActivityOutcome_CPDBAS_Mutagenicity>
inactive

>  <TD50_Rat_mg>
2500

>  <TD50_Rat_mmol>
15.6

>  <ActivityScore_CPDBAS_Rat>
13

>  <TD50_Rat_Note>
no positive results are statistically significant

>  <TargetSites_Rat_Male>
no positive results

>  <TargetSites_Rat_Female>
uterus

>  <ActivityOutcome_CPDBAS_Rat>
active

>  <TD50_Mouse_mg>
1030

>  <TD50_Mouse_mmol>
6.43

>  <ActivityScore_CPDBAS_Mouse>
19

>  <TD50_Mouse_Note>
TD50 is harmonic mean of more than one positive test

>  <TargetSites_Mouse_Male>
kidney; lung; vascular system

>  <TargetSites_Mouse_Female>
lung; vascular system

>  <ActivityOutcome_CPDBAS_Mouse>
active

>  <ActivityOutcome_CPDBAS_SingleCellCall>
active

>  <ActivityOutcome_CPDBAS_MultiCellCall>
active

>  <ActivityOutcome_CPDBAS_MultiCellCall_Details>
multisite active; multisex active; multispecies active

>  <NTP_TechnicalReport>
TR 83; final call in CPDB differs due to additional data

>  <ChemicalPage_URL>
http://potency.berkeley.edu/chempages/DAMINOZIDE.html

$$$$



 17 18  0  0  0  0  0  0  0  0999 V2000
    5.3218   -2.6609    0.0000 O   0  0  0  0  0  0  0  0  0  0  0  0
    5.3218   -1.3304    0.0000 S   0  0  0  0  0  0  0  0  0  0  0  0
    5.3218    0.0000    0.0000 O   0  0  0  0  0  0  0  0  0  0  0  0
    3.9913   -1.3304    0.0000 C   0  0  0  0  0  0  0  0  0  0  0  0
    3.3208   -0.1809    0.0000 C   0  0  0  0  0  0  0  0  0  0  0  0
    1.9903   -0.1809    0.0000 C   0  0  0  0  0  0  0  0  0  0  0  0
    1.3304   -1.3304    0.0000 C   0  0  0  0  0  0  0  0  0  0  0  0
    1.9903   -2.4799    0.0000 C   0  0  0  0  0  0  0  0  0  0  0  0
    3.3208   -2.4799    0.0000 C   0  0  0  0  0  0  0  0  0  0  0  0
    0.0000   -1.3304    0.0000 N   0  0  0  0  0  0  0  0  0  0  0  0
    6.6522   -1.3304    0.0000 C   0  0  0  0  0  0  0  0  0  0  0  0
    7.3121   -0.1809    0.0000 C   0  0  0  0  0  0  0  0  0  0  0  0
    8.6532   -0.1809    0.0000 C   0  0  0  0  0  0  0  0  0  0  0  0
    9.3131   -1.3304    0.0000 C   0  0  0  0  0  0  0  0  0  0  0  0
    8.6532   -2.4799    0.0000 C   0  0  0  0  0  0  0  0  0  0  0  0
    7.3121   -2.4799    0.0000 C   0  0  0  0  0  0  0  0  0  0  0  0
   10.6435   -1.3304    0.0000 N   0  0  0  0  0  0  0  0  0  0  0  0
  1  2  2  0  0  0  0
  2  3  2  0  0  0  0
  2  4  1  0  0  0  0
  2 11  1  0  0  0  0
  4  5  2  0  0  0  0
  4  9  1  0  0  0  0
  5  6  1  0  0  0  0
  6  7  2  0  0  0  0
  7  8  1  0  0  0  0
  7 10  1  0  0  0  0
  8  9  2  0  0  0  0
 11 12  2  0  0  0  0
 11 16  1  0  0  0  0
 12 13  1  0  0  0  0
 13 14  2  0  0  0  0
 14 15  1  0  0  0  0
 14 17  1  0  0  0  0
 15 16  2  0  0  0  0
M  END
>  <DSSTox_RID>
20371

>  <DSSTox_CID>
371

>  <DSSTox_Generic_SID>
20371

>  <DSSTox_FileID>
386_CPDBAS_v5d

>  <STRUCTURE_Formula>
C12H12N2O2S

>  <STRUCTURE_MolecularWeight>
248.3009

>  <STRUCTURE_ChemicalType>
defined organic

>  <STRUCTURE_TestedForm_DefinedOrganic>
parent

>  <STRUCTURE_Shown>
tested chemical

>  <TestSubstance_ChemicalName>
Dapsone

>  <TestSubstance_CASRN>
80-08-0

>  <TestSubstance_Description>
single chemical compound

>  <STRUCTURE_ChemicalName_IUPAC>
4,4'-sulfonyldianiline

>  <STRUCTURE_SMILES>
O=S(=O)(C1=CC=C(C=C1)N)C2=CC=C(C=C2)N

>  <STRUCTURE_Parent_SMILES>
O=S(=O)(C1=CC=C(C=C1)N)C2=CC=C(C=C2)N

>  <STRUCTURE_InChI>
InChI=1/C12H12N2O2S/c13-9-1-5-11(6-2-9)17(15,16)12-7-3-10(14)4-8-12/h1-8H,13-14H2

>  <STRUCTURE_InChIKey>
MQJKPEGWNLWLTK-UHFFFAOYAJ

>  <StudyType>
Carcinogenicity

>  <Endpoint>
TD50; Tumor Target Sites

>  <Species>
rat; mouse

>  <ActivityOutcome_CPDBAS_Mutagenicity>
inactive

>  <TD50_Rat_mg>
22.4

>  <TD50_Rat_mmol>
0.0902

>  <ActivityScore_CPDBAS_Rat>
37

>  <TargetSites_Rat_Male>
peritoneal cavity; spleen

>  <TargetSites_Rat_Female>
no positive results

>  <ActivityOutcome_CPDBAS_Rat>
active

>  <ActivityScore_CPDBAS_Mouse>
0

>  <TD50_Mouse_Note>
no positive results

>  <TargetSites_Mouse_Male>
no positive results

>  <TargetSites_Mouse_Female>
no positive results

>  <ActivityOutcome_CPDBAS_Mouse>
inactive

>  <ActivityOutcome_CPDBAS_SingleCellCall>
active

>  <ActivityOutcome_CPDBAS_MultiCellCall>
active

>  <ActivityOutcome_CPDBAS_MultiCellCall_Details>
multisite active

>  <NTP_TechnicalReport>
TR 20

>  <ChemicalPage_URL>
http://potency.berkeley.edu/chempages/DAPSONE.html

$$$$



 18 19  0  0  0  0  0  0  0  0999 V2000
    3.4589    0.0000    0.0000 Cl  0  0  0  0  0  0  0  0  0  0  0  0
    4.6038   -0.6611    0.0000 C   0  0  0  0  0  0  0  0  0  0  0  0
    4.6038   -1.9915    0.0000 C   0  0  3  0  0  0  0  0  0  0  0  0
    5.7567   -2.6607    0.0000 C   0  0  0  0  0  0  0  0  0  0  0  0
    6.9097   -1.9915    0.0000 C   0  0  0  0  0  0  0  0  0  0  0  0
    8.0626   -2.6607    0.0000 C   0  0  0  0  0  0  0  0  0  0  0  0
    8.0626   -3.9910    0.0000 C   0  0  0  0  0  0  0  0  0  0  0  0
    6.9097   -4.6521    0.0000 C   0  0  0  0  0  0  0  0  0  0  0  0
    5.7567   -3.9910    0.0000 C   0  0  0  0  0  0  0  0  0  0  0  0
    6.9097   -0.6611    0.0000 Cl  0  0  0  0  0  0  0  0  0  0  0  0
    3.4589   -2.6607    0.0000 C   0  0  0  0  0  0  0  0  0  0  0  0
    3.4589   -3.9910    0.0000 C   0  0  0  0  0  0  0  0  0  0  0  0
    2.3059   -4.6521    0.0000 C   0  0  0  0  0  0  0  0  0  0  0  0
    1.1530   -3.9910    0.0000 C   0  0  0  0  0  0  0  0  0  0  0  0
    1.1530   -2.6607    0.0000 C   0  0  0  0  0  0  0  0  0  0  0  0
    2.3059   -1.9915    0.0000 C   0  0  0  0  0  0  0  0  0  0  0  0
    0.0000   -4.6521    0.0000 Cl  0  0  0  0  0  0  0  0  0  0  0  0
    5.7567    0.0000    0.0000 Cl  0  0  0  0  0  0  0  0  0  0  0  0
  1  2  1  0  0  0  0
  2  3  1  0  0  0  0
  2 18  1  0  0  0  0
  3  4  1  0  0  0  0
  3 11  1  0  0  0  0
  4  5  2  0  0  0  0
  4  9  1  0  0  0  0
  5  6  1  0  0  0  0
  5 10  1  0  0  0  0
  6  7  2  0  0  0  0
  7  8  1  0  0  0  0
  8  9  2  0  0  0  0
 11 12  2  0  0  0  0
 11 16  1  0  0  0  0
 12 13  1  0  0  0  0
 13 14  2  0  0  0  0
 14 15  1  0  0  0  0
 14 17  1  0  0  0  0
 15 16  2  0  0  0  0
M  END
>  <DSSTox_RID>
20372

>  <DSSTox_CID>
372

>  <DSSTox_Generic_SID>
20372

>  <DSSTox_FileID>
387_CPDBAS_v5d

>  <STRUCTURE_Formula>
C14H10Cl4

>  <STRUCTURE_MolecularWeight>
320.0412

>  <STRUCTURE_ChemicalType>
defined organic

>  <STRUCTURE_TestedForm_DefinedOrganic>
parent

>  <STRUCTURE_Shown>
tested chemical

>  <TestSubstance_ChemicalName>
o,p'-DDD

>  <TestSubstance_CASRN>
53-19-0

>  <TestSubstance_Description>
single chemical compound

>  <STRUCTURE_ChemicalName_IUPAC>
1-chloro-2-[2,2-dichloro-1-(4-chlorophenyl)ethyl]benzene

>  <STRUCTURE_SMILES>
ClC(C(C1=C(C=CC=C1)Cl)C2=CC=C(C=C2)Cl)Cl

>  <STRUCTURE_Parent_SMILES>
ClC(C(C1=C(C=CC=C1)Cl)C2=CC=C(C=C2)Cl)Cl

>  <STRUCTURE_InChI>
InChI=1/C14H10Cl4/c15-10-7-5-9(6-8-10)13(14(17)18)11-3-1-2-4-12(11)16/h1-8,13-14H

>  <STRUCTURE_InChIKey>
JWBOIMRXGHLCPP-UHFFFAOYAD

>  <StudyType>
Carcinogenicity

>  <Endpoint>
TD50; Tumor Target Sites

>  <Species>
mouse

>  <ActivityOutcome_CPDBAS_Mutagenicity>
inactive

>  <ActivityScore_CPDBAS_Mouse>
0

>  <TD50_Mouse_Note>
no positive results

>  <TargetSites_Mouse_Male>
no positive results

>  <TargetSites_Mouse_Female>
no positive results

>  <ActivityOutcome_CPDBAS_Mouse>
inactive

>  <ActivityOutcome_CPDBAS_SingleCellCall>
inactive

>  <ActivityOutcome_CPDBAS_MultiCellCall>
inactive

>  <ActivityOutcome_CPDBAS_MultiCellCall_Details>
multisex inactive

>  <ChemicalPage_URL>
http://potency.berkeley.edu/chempages/o,p'-DDD.html

$$$$



 18 19  0  0  0  0  0  0  0  0999 V2000
    3.4540    0.0000    0.0000 Cl  0  0  0  0  0  0  0  0  0  0  0  0
    4.6054   -0.6632    0.0000 C   0  0  0  0  0  0  0  0  0  0  0  0
    4.6054   -1.9895    0.0000 C   0  0  0  0  0  0  0  0  0  0  0  0
    5.7567   -2.6527    0.0000 C   0  0  0  0  0  0  0  0  0  0  0  0
    6.9080   -1.9895    0.0000 C   0  0  0  0  0  0  0  0  0  0  0  0
    8.0594   -2.6527    0.0000 C   0  0  0  0  0  0  0  0  0  0  0  0
    8.0594   -3.9882    0.0000 C   0  0  0  0  0  0  0  0  0  0  0  0
    6.9080   -4.6514    0.0000 C   0  0  0  0  0  0  0  0  0  0  0  0
    5.7567   -3.9882    0.0000 C   0  0  0  0  0  0  0  0  0  0  0  0
    9.2107   -4.6514    0.0000 Cl  0  0  0  0  0  0  0  0  0  0  0  0
    3.4540   -2.6527    0.0000 C   0  0  0  0  0  0  0  0  0  0  0  0
    3.4540   -3.9882    0.0000 C   0  0  0  0  0  0  0  0  0  0  0  0
    2.3027   -4.6514    0.0000 C   0  0  0  0  0  0  0  0  0  0  0  0
    1.1513   -3.9882    0.0000 C   0  0  0  0  0  0  0  0  0  0  0  0
    1.1513   -2.6527    0.0000 C   0  0  0  0  0  0  0  0  0  0  0  0
    2.3027   -1.9895    0.0000 C   0  0  0  0  0  0  0  0  0  0  0  0
    0.0000   -4.6514    0.0000 Cl  0  0  0  0  0  0  0  0  0  0  0  0
    5.7567    0.0000    0.0000 Cl  0  0  0  0  0  0  0  0  0  0  0  0
  1  2  1  0  0  0  0
  2  3  1  0  0  0  0
  2 18  1  0  0  0  0
  3  4  1  0  0  0  0
  3 11  1  0  0  0  0
  4  5  2  0  0  0  0
  4  9  1  0  0  0  0
  5  6  1  0  0  0  0
  6  7  2  0  0  0  0
  7  8  1  0  0  0  0
  7 10  1  0  0  0  0
  8  9  2  0  0  0  0
 11 12  2  0  0  0  0
 11 16  1  0  0  0  0
 12 13  1  0  0  0  0
 13 14  2  0  0  0  0
 14 15  1  0  0  0  0
 14 17  1  0  0  0  0
 15 16  2  0  0  0  0
M  END
>  <DSSTox_RID>
20373

>  <DSSTox_CID>
373

>  <DSSTox_Generic_SID>
20373

>  <DSSTox_FileID>
388_CPDBAS_v5d

>  <STRUCTURE_Formula>
C14H10Cl4

>  <STRUCTURE_MolecularWeight>
320.0412

>  <STRUCTURE_ChemicalType>
defined organic

>  <STRUCTURE_TestedForm_DefinedOrganic>
parent

>  <STRUCTURE_Shown>
tested chemical

>  <TestSubstance_ChemicalName>
p,p'-DDD

>  <TestSubstance_CASRN>
72-54-8

>  <TestSubstance_Description>
single chemical compound

>  <STRUCTURE_ChemicalName_IUPAC>
1,1'-(2,2-dichloroethane-1,1-diyl)bis(4-chlorobenzene)

>  <STRUCTURE_SMILES>
ClC(C(C1=CC=C(C=C1)Cl)C2=CC=C(C=C2)Cl)Cl

>  <STRUCTURE_Parent_SMILES>
ClC(C(C1=CC=C(C=C1)Cl)C2=CC=C(C=C2)Cl)Cl

>  <STRUCTURE_InChI>
InChI=1/C14H10Cl4/c15-11-5-1-9(2-6-11)13(14(17)18)10-3-7-12(16)8-4-10/h1-8,13-14H

>  <STRUCTURE_InChIKey>
AHJKRLASYNVKDZ-UHFFFAOYAJ

>  <StudyType>
Carcinogenicity

>  <Endpoint>
TD50; Tumor Target Sites

>  <Species>
rat; mouse

>  <ActivityOutcome_CPDBAS_Mutagenicity>
inactive

>  <ActivityScore_CPDBAS_Rat>
0

>  <TD50_Rat_Note>
no positive results

>  <TargetSites_Rat_Male>
no positive results

>  <TargetSites_Rat_Female>
no positive results

>  <ActivityOutcome_CPDBAS_Rat>
inactive

>  <TD50_Mouse_mg>
30.7

>  <TD50_Mouse_mmol>
0.0959

>  <ActivityScore_CPDBAS_Mouse>
40

>  <TD50_Mouse_Note>
TD50 is harmonic mean of more than one positive test

>  <TargetSites_Mouse_Male>
liver; lung

>  <TargetSites_Mouse_Female>
lung

>  <ActivityOutcome_CPDBAS_Mouse>
active

>  <ActivityOutcome_CPDBAS_SingleCellCall>
active

>  <ActivityOutcome_CPDBAS_MultiCellCall>
active

>  <ActivityOutcome_CPDBAS_MultiCellCall_Details>
multisite active; multisex active

>  <NTP_TechnicalReport>
TR 131

>  <ChemicalPage_URL>
http://potency.berkeley.edu/chempages/p,p'-DDD.html

$$$$



 18 19  0  0  0  0  0  0  0  0999 V2000
    3.4540    0.0000    0.0000 Cl  0  0  0  0  0  0  0  0  0  0  0  0
    4.6054   -0.6632    0.0000 C   0  0  0  0  0  0  0  0  0  0  0  0
    4.6054   -1.9895    0.0000 C   0  0  0  0  0  0  0  0  0  0  0  0
    5.7567   -2.6527    0.0000 C   0  0  0  0  0  0  0  0  0  0  0  0
    6.9080   -1.9895    0.0000 C   0  0  0  0  0  0  0  0  0  0  0  0
    8.0594   -2.6527    0.0000 C   0  0  0  0  0  0  0  0  0  0  0  0
    8.0594   -3.9882    0.0000 C   0  0  0  0  0  0  0  0  0  0  0  0
    6.9080   -4.6514    0.0000 C   0  0  0  0  0  0  0  0  0  0  0  0
    5.7567   -3.9882    0.0000 C   0  0  0  0  0  0  0  0  0  0  0  0
    9.2107   -4.6514    0.0000 Cl  0  0  0  0  0  0  0  0  0  0  0  0
    3.4540   -2.6527    0.0000 C   0  0  0  0  0  0  0  0  0  0  0  0
    3.4540   -3.9882    0.0000 C   0  0  0  0  0  0  0  0  0  0  0  0
    2.3027   -4.6514    0.0000 C   0  0  0  0  0  0  0  0  0  0  0  0
    1.1513   -3.9882    0.0000 C   0  0  0  0  0  0  0  0  0  0  0  0
    1.1513   -2.6527    0.0000 C   0  0  0  0  0  0  0  0  0  0  0  0
    2.3027   -1.9895    0.0000 C   0  0  0  0  0  0  0  0  0  0  0  0
    0.0000   -4.6514    0.0000 Cl  0  0  0  0  0  0  0  0  0  0  0  0
    5.7567    0.0000    0.0000 Cl  0  0  0  0  0  0  0  0  0  0  0  0
  1  2  1  0  0  0  0
  2  3  2  0  0  0  0
  2 18  1  0  0  0  0
  3  4  1  0  0  0  0
  3 11  1  0  0  0  0
  4  5  2  0  0  0  0
  4  9  1  0  0  0  0
  5  6  1  0  0  0  0
  6  7  2  0  0  0  0
  7  8  1  0  0  0  0
  7 10  1  0  0  0  0
  8  9  2  0  0  0  0
 11 12  2  0  0  0  0
 11 16  1  0  0  0  0
 12 13  1  0  0  0  0
 13 14  2  0  0  0  0
 14 15  1  0  0  0  0
 14 17  1  0  0  0  0
 15 16  2  0  0  0  0
M  END
>  <DSSTox_RID>
20374

>  <DSSTox_CID>
374

>  <DSSTox_Generic_SID>
20374

>  <DSSTox_FileID>
389_CPDBAS_v5d

>  <STRUCTURE_Formula>
C14H8Cl4

>  <STRUCTURE_MolecularWeight>
318.0253

>  <STRUCTURE_ChemicalType>
defined organic

>  <STRUCTURE_TestedForm_DefinedOrganic>
parent

>  <STRUCTURE_Shown>
tested chemical

>  <TestSubstance_ChemicalName>
p,p'-DDE

>  <TestSubstance_CASRN>
72-55-9

>  <TestSubstance_Description>
single chemical compound

>  <STRUCTURE_ChemicalName_IUPAC>
1,1'-(2,2-dichloroethene-1,1-diyl)bis(4-chlorobenzene)

>  <STRUCTURE_SMILES>
ClC(=C(C1=CC=C(C=C1)Cl)C2=CC=C(C=C2)Cl)Cl

>  <STRUCTURE_Parent_SMILES>
ClC(=C(C1=CC=C(C=C1)Cl)C2=CC=C(C=C2)Cl)Cl

>  <STRUCTURE_InChI>
InChI=1/C14H8Cl4/c15-11-5-1-9(2-6-11)13(14(17)18)10-3-7-12(16)8-4-10/h1-8H

>  <STRUCTURE_InChIKey>
UCNVFOCBFJOQAL-UHFFFAOYAE

>  <StudyType>
Carcinogenicity

>  <Endpoint>
TD50; Tumor Target Sites

>  <Species>
rat; mouse; hamster

>  <ActivityOutcome_CPDBAS_Mutagenicity>
inactive

>  <ActivityScore_CPDBAS_Rat>
0

>  <TD50_Rat_Note>
no positive results

>  <TargetSites_Rat_Male>
no positive results

>  <TargetSites_Rat_Female>
no positive results

>  <ActivityOutcome_CPDBAS_Rat>
inactive

>  <TD50_Mouse_mg>
12.5

>  <TD50_Mouse_mmol>
0.0393

>  <ActivityScore_CPDBAS_Mouse>
44

>  <TD50_Mouse_Note>
TD50 is harmonic mean of more than one positive test

>  <TargetSites_Mouse_Male>
liver

>  <TargetSites_Mouse_Female>
liver

>  <ActivityOutcome_CPDBAS_Mouse>
active

>  <TD50_Hamster_mg>
202

>  <TD50_Hamster_mmol>
0.635

>  <ActivityScore_CPDBAS_Hamster>
31

>  <TD50_Hamster_Note>
TD50 is harmonic mean of more than one positive test

>  <TargetSites_Hamster_Male>
liver

>  <TargetSites_Hamster_Female>
liver

>  <ActivityOutcome_CPDBAS_Hamster>
active

>  <ActivityOutcome_CPDBAS_SingleCellCall>
active

>  <ActivityOutcome_CPDBAS_MultiCellCall>
active

>  <ActivityOutcome_CPDBAS_MultiCellCall_Details>
multisex active; multispecies active

>  <NTP_TechnicalReport>
TR 131

>  <ChemicalPage_URL>
http://potency.berkeley.edu/chempages/p,p'-DDE.html

$$$$



 19 20  0  0  0  0  0  0  0  0999 V2000
    3.2800   -1.3268    0.0000 Cl  0  0  0  0  0  0  0  0  0  0  0  0
    4.6068   -1.3268    0.0000 C   0  0  0  0  0  0  0  0  0  0  0  0
    4.6068   -2.6535    0.0000 C   0  0  0  0  0  0  0  0  0  0  0  0
    5.7585   -3.3169    0.0000 C   0  0  0  0  0  0  0  0  0  0  0  0
    6.9102   -2.6535    0.0000 C   0  0  0  0  0  0  0  0  0  0  0  0
    8.0619   -3.3169    0.0000 C   0  0  0  0  0  0  0  0  0  0  0  0
    8.0619   -4.6529    0.0000 C   0  0  0  0  0  0  0  0  0  0  0  0
    6.9102   -5.3162    0.0000 C   0  0  0  0  0  0  0  0  0  0  0  0
    5.7585   -4.6529    0.0000 C   0  0  0  0  0  0  0  0  0  0  0  0
    9.2136   -5.3162    0.0000 Cl  0  0  0  0  0  0  0  0  0  0  0  0
    3.4551   -3.3169    0.0000 C   0  0  0  0  0  0  0  0  0  0  0  0
    3.4551   -4.6529    0.0000 C   0  0  0  0  0  0  0  0  0  0  0  0
    2.3034   -5.3162    0.0000 C   0  0  0  0  0  0  0  0  0  0  0  0
    1.1517   -4.6529    0.0000 C   0  0  0  0  0  0  0  0  0  0  0  0
    1.1517   -3.3169    0.0000 C   0  0  0  0  0  0  0  0  0  0  0  0
    2.3034   -2.6535    0.0000 C   0  0  0  0  0  0  0  0  0  0  0  0
    0.0000   -5.3162    0.0000 Cl  0  0  0  0  0  0  0  0  0  0  0  0
    4.6068    0.0000    0.0000 Cl  0  0  0  0  0  0  0  0  0  0  0  0
    5.9336   -1.3268    0.0000 Cl  0  0  0  0  0  0  0  0  0  0  0  0
  1  2  1  0  0  0  0
  2  3  1  0  0  0  0
  2 18  1  0  0  0  0
  2 19  1  0  0  0  0
  3  4  1  0  0  0  0
  3 11  1  0  0  0  0
  4  5  2  0  0  0  0
  4  9  1  0  0  0  0
  5  6  1  0  0  0  0
  6  7  2  0  0  0  0
  7  8  1  0  0  0  0
  7 10  1  0  0  0  0
  8  9  2  0  0  0  0
 11 12  2  0  0  0  0
 11 16  1  0  0  0  0
 12 13  1  0  0  0  0
 13 14  2  0  0  0  0
 14 15  1  0  0  0  0
 14 17  1  0  0  0  0
 15 16  2  0  0  0  0
M  END
>  <DSSTox_RID>
20375

>  <DSSTox_CID>
375

>  <DSSTox_Generic_SID>
20375

>  <DSSTox_FileID>
390_CPDBAS_v5d

>  <STRUCTURE_Formula>
C14H9Cl5

>  <STRUCTURE_MolecularWeight>
354.4863

>  <STRUCTURE_ChemicalType>
defined organic

>  <STRUCTURE_TestedForm_DefinedOrganic>
parent

>  <STRUCTURE_Shown>
tested chemical

>  <TestSubstance_ChemicalName>
DDT

>  <TestSubstance_CASRN>
50-29-3

>  <TestSubstance_Description>
single chemical compound

>  <STRUCTURE_ChemicalName_IUPAC>
1,1'-(2,2,2-trichloroethane-1,1-diyl)bis(4-chlorobenzene)

>  <STRUCTURE_SMILES>
ClC(C(C1=CC=C(C=C1)Cl)C2=CC=C(C=C2)Cl)(Cl)Cl

>  <STRUCTURE_Parent_SMILES>
ClC(C(C1=CC=C(C=C1)Cl)C2=CC=C(C=C2)Cl)(Cl)Cl

>  <STRUCTURE_InChI>
InChI=1/C14H9Cl5/c15-11-5-1-9(2-6-11)13(14(17,18)19)10-3-7-12(16)8-4-10/h1-8,13H

>  <STRUCTURE_InChIKey>
YVGGHNCTFXOJCH-UHFFFAOYAJ

>  <StudyType>
Carcinogenicity

>  <Endpoint>
TD50; Tumor Target Sites

>  <Species>
rat; mouse; hamster; rhesus; cynomolgus

>  <ActivityOutcome_CPDBAS_Mutagenicity>
inactive

>  <TD50_Rat_mg>
84.7

>  <TD50_Rat_mmol>
0.239

>  <ActivityScore_CPDBAS_Rat>
32

>  <TD50_Rat_Note>
TD50 is harmonic mean of more than one positive test

>  <TargetSites_Rat_Male>
liver

>  <TargetSites_Rat_Female>
liver

>  <ActivityOutcome_CPDBAS_Rat>
active

>  <TD50_Mouse_mg>
12.8

>  <TD50_Mouse_mmol>
0.0361

>  <ActivityScore_CPDBAS_Mouse>
45

>  <TD50_Mouse_Note>
TD50 is harmonic mean of more than one positive test; greater than ten-fold variation among TD50 values for positive results

>  <TargetSites_Mouse_Male>
hematopoietic system; liver; lung

>  <TargetSites_Mouse_Female>
hematopoietic system; liver; lung

>  <ActivityOutcome_CPDBAS_Mouse>
active

>  <ActivityScore_CPDBAS_Hamster>
0

>  <TD50_Hamster_Note>
no positive results

>  <TargetSites_Hamster_Male>
no positive results

>  <TargetSites_Hamster_Female>
no positive results

>  <ActivityOutcome_CPDBAS_Hamster>
inactive

>  <TargetSites_Rhesus>
no positive results

>  <TargetSites_Cynomolgus>
no positive results

>  <TD50_Dog_Primates_Note>
no positive results for Rhesus and Cynomolgus

>  <ActivityOutcome_CPDBAS_Dog_Primates>
inactive

>  <ActivityOutcome_CPDBAS_SingleCellCall>
active

>  <ActivityOutcome_CPDBAS_MultiCellCall>
active

>  <ActivityOutcome_CPDBAS_MultiCellCall_Details>
multisite active; multisex active; multispecies active

>  <NTP_TechnicalReport>
TR 131

>  <ChemicalPage_URL>
http://potency.berkeley.edu/chempages/DDT.html

$$$$



 23 24  0  0  0  0  0  0  0  0999 V2000
    5.8146   -4.3836    0.0000 Br  0  0  0  0  0  0  0  0  0  0  0  0
    6.6410   -3.3860    0.0000 C   0  0  0  0  0  0  0  0  0  0  0  0
    6.4193   -2.1162    0.0000 C   0  0  0  0  0  0  0  0  0  0  0  0
    7.4169   -1.2798    0.0000 C   0  0  0  0  0  0  0  0  0  0  0  0
    8.6363   -1.7232    0.0000 C   0  0  0  0  0  0  0  0  0  0  0  0
    8.8580   -3.0030    0.0000 C   0  0  0  0  0  0  0  0  0  0  0  0
    7.8603   -3.8294    0.0000 C   0  0  0  0  0  0  0  0  0  0  0  0
    8.0921   -5.1092    0.0000 Br  0  0  0  0  0  0  0  0  0  0  0  0
   10.0773   -3.4464    0.0000 Br  0  0  0  0  0  0  0  0  0  0  0  0
    9.6238   -0.8868    0.0000 Br  0  0  0  0  0  0  0  0  0  0  0  0
    7.1851    0.0000    0.0000 Br  0  0  0  0  0  0  0  0  0  0  0  0
    4.8371   -1.5318    0.0000 O   0  0  0  0  0  0  0  0  0  0  0  0
    3.3759   -2.3782    0.0000 C   0  0  0  0  0  0  0  0  0  0  0  0
    3.3759   -3.6782    0.0000 C   0  0  0  0  0  0  0  0  0  0  0  0
    2.2472   -4.3232    0.0000 C   0  0  0  0  0  0  0  0  0  0  0  0
    1.1287   -3.6782    0.0000 C   0  0  0  0  0  0  0  0  0  0  0  0
    1.1287   -2.3782    0.0000 C   0  0  0  0  0  0  0  0  0  0  0  0
    2.2472   -1.7333    0.0000 C   0  0  0  0  0  0  0  0  0  0  0  0
    2.2472   -0.4333    0.0000 Br  0  0  0  0  0  0  0  0  0  0  0  0
    0.0000   -1.7333    0.0000 Br  0  0  0  0  0  0  0  0  0  0  0  0
    0.0000   -4.3232    0.0000 Br  0  0  0  0  0  0  0  0  0  0  0  0
    2.2472   -5.6231    0.0000 Br  0  0  0  0  0  0  0  0  0  0  0  0
    4.3635   -4.5146    0.0000 Br  0  0  0  0  0  0  0  0  0  0  0  0
  1  2  1  0  0  0  0
  2  3  2  0  0  0  0
  2  7  1  0  0  0  0
  3  4  1  0  0  0  0
  3 12  1  0  0  0  0
  4  5  2  0  0  0  0
  4 11  1  0  0  0  0
  5  6  1  0  0  0  0
  5 10  1  0  0  0  0
  6  7  2  0  0  0  0
  6  9  1  0  0  0  0
  7  8  1  0  0  0  0
 12 13  1  0  0  0  0
 13 14  2  0  0  0  0
 13 18  1  0  0  0  0
 14 15  1  0  0  0  0
 14 23  1  0  0  0  0
 15 16  2  0  0  0  0
 15 22  1  0  0  0  0
 16 17  1  0  0  0  0
 16 21  1  0  0  0  0
 17 18  2  0  0  0  0
 17 20  1  0  0  0  0
 18 19  1  0  0  0  0
M  END
>  <DSSTox_RID>
20376

>  <DSSTox_CID>
376

>  <DSSTox_Generic_SID>
20376

>  <DSSTox_FileID>
391_CPDBAS_v5d

>  <STRUCTURE_Formula>
C12Br10O

>  <STRUCTURE_MolecularWeight>
959.1678

>  <STRUCTURE_ChemicalType>
defined organic

>  <STRUCTURE_TestedForm_DefinedOrganic>
parent

>  <STRUCTURE_Shown>
tested chemical

>  <TestSubstance_ChemicalName>
Decabromodiphenyl oxide

>  <TestSubstance_CASRN>
1163-19-5

>  <TestSubstance_Description>
single chemical compound

>  <STRUCTURE_ChemicalName_IUPAC>
1,1'-oxybis(pentabromobenzene)

>  <STRUCTURE_SMILES>
BrC1=C(OC2=C(Br)C(Br)=C(Br)C(Br)=C2Br)C(Br)=C(Br)C(Br)=C1Br

>  <STRUCTURE_Parent_SMILES>
BrC1=C(OC2=C(Br)C(Br)=C(Br)C(Br)=C2Br)C(Br)=C(Br)C(Br)=C1Br

>  <STRUCTURE_InChI>
InChI=1/C12Br10O/c13-1-3(15)7(19)11(8(20)4(1)16)23-12-9(21)5(17)2(14)6(18)10(12)22

>  <STRUCTURE_InChIKey>
WHHGLZMJPXIBIX-UHFFFAOYAY

>  <StudyType>
Carcinogenicity

>  <Endpoint>
TD50; Tumor Target Sites

>  <Species>
rat; mouse

>  <ActivityOutcome_CPDBAS_Mutagenicity>
inactive

>  <TD50_Rat_mg>
3340

>  <TD50_Rat_mmol>
3.48

>  <ActivityScore_CPDBAS_Rat>
20

>  <TD50_Rat_Note>
TD50 is harmonic mean of more than one positive test

>  <TargetSites_Rat_Male>
liver

>  <TargetSites_Rat_Female>
liver

>  <ActivityOutcome_CPDBAS_Rat>
active

>  <ActivityScore_CPDBAS_Mouse>
0

>  <TD50_Mouse_Note>
no positive results

>  <TargetSites_Mouse_Male>
no positive results

>  <TargetSites_Mouse_Female>
no positive results

>  <ActivityOutcome_CPDBAS_Mouse>
inactive

>  <ActivityOutcome_CPDBAS_SingleCellCall>
active

>  <ActivityOutcome_CPDBAS_MultiCellCall>
active

>  <ActivityOutcome_CPDBAS_MultiCellCall_Details>
multisex active

>  <NTP_TechnicalReport>
TR 309

>  <ChemicalPage_URL>
http://potency.berkeley.edu/chempages/DECABROMODIPHENYL%20OXIDE.html

$$$$



 35 39  0  0  1  0  0  0  0  0999 V2000
    8.0241   -4.4523    0.0000 C   0  0  2  0  0  0  0  0  0  0  0  0
    6.7916   -4.8673    0.0000 C   0  0  2  0  0  0  0  0  0  0  0  0
    6.7916   -6.2005    0.0000 C   0  0  2  0  0  0  0  0  0  0  0  0
    3.3958   -6.8167    0.0000 C   0  0  2  0  0  0  0  0  0  0  0  0
    8.7913   -3.4084    0.0000 N   0  0  0  0  0  0  0  0  0  0  0  0
    5.6848   -6.8293    0.0000 C   0  0  1  0  0  0  0  0  0  0  0  0
    8.7536   -5.5339    0.0000 C   0  0  2  0  0  0  0  0  0  0  0  0
    4.5277   -6.1879    0.0000 C   0  0  2  0  0  0  0  0  0  0  0  0
    3.3958   -8.1122    0.0000 C   0  0  0  0  0  0  0  0  0  0  0  0
    5.6848   -4.2133    0.0000 C   0  0  0  0  0  0  0  0  0  0  0  0
    4.5277   -4.8673    0.0000 C   0  0  2  0  0  0  0  0  0  0  0  0
    2.2890   -6.1879    0.0000 C   0  0  0  0  0  0  0  0  0  0  0  0
   10.0113   -5.1314    0.0000 O   0  0  0  0  0  0  0  0  0  0  0  0
    8.0241   -6.5904    0.0000 C   0  0  0  0  0  0  0  0  0  0  0  0
   10.0113   -3.8234    0.0000 C   0  0  0  0  0  0  0  0  0  0  0  0
    8.0241   -2.1381    0.0000 C   0  0  0  0  0  0  0  0  0  0  0  0
    2.2890   -8.7536    0.0000 C   0  0  0  0  0  0  0  0  0  0  0  0
    5.6848   -8.1122    0.0000 C   0  0  0  0  0  0  0  0  0  0  0  0
    1.1697   -6.8293    0.0000 C   0  0  0  0  0  0  0  0  0  0  0  0
    1.1697   -8.1122    0.0000 C   0  0  0  0  0  0  0  0  0  0  0  0
    4.5277   -8.7536    0.0000 C   0  0  0  0  0  0  0  0  0  0  0  0
   11.4074   -1.2954    0.0000 C   0  0  0  0  0  0  0  0  0  0  0  0
    9.0806   -1.4715    0.0000 C   0  0  0  0  0  0  0  0  0  0  0  0
    6.9677   -1.4715    0.0000 O   0  0  0  0  0  0  0  0  0  0  0  0
   10.2377   -2.1004    0.0000 O   0  0  0  0  0  0  0  0  0  0  0  0
   11.4074    0.0000    0.0000 O   0  0  0  0  0  0  0  0  0  0  0  0
    0.0000   -8.7410    0.0000 O   0  0  0  0  0  0  0  0  0  0  0  0
    6.7916   -3.5593    0.0000 C   0  0  0  0  0  0  0  0  0  0  0  0
    3.3958   -4.2133    0.0000 O   0  0  0  0  0  0  0  0  0  0  0  0
    3.3958   -5.4836    0.0000 C   0  0  0  0  0  0  0  0  0  0  0  0
   11.0678   -3.0688    0.0000 C   0  0  0  0  0  0  0  0  0  0  0  0
   12.5770   -1.8740    0.0000 C   0  0  0  0  0  0  0  0  0  0  0  0
    4.5277   -7.5085    0.0000 H   0  0  0  0  0  0  0  0  0  0  0  0
    5.6848   -5.4962    0.0000 H   0  0  0  0  0  0  0  0  0  0  0  0
    6.7916   -7.5211    0.0000 H   0  0  0  0  0  0  0  0  0  0  0  0
  1  2  1  0  0  0  0
  1  5  1  6  0  0  0
  1  7  1  0  0  0  0
  1 16  1  0  0  0  0
  2  3  1  0  0  0  0
  2 10  1  0  0  0  0
  2 28  1  1  0  0  0
  3  6  1  0  0  0  0
  3 14  1  0  0  0  0
  3 35  1  6  0  0  0
  4  8  1  0  0  0  0
  4  9  1  0  0  0  0
  4 12  1  0  0  0  0
  4 30  1  1  0  0  0
  5 15  2  0  0  0  0
  6 18  1  0  0  0  0
  6  8  1  0  0  0  0
  6 34  1  1  0  0  0
  7 13  1  6  0  0  0
  7 14  1  0  0  0  0
  8 11  1  0  0  0  0
  8 33  1  6  0  0  0
  9 17  2  0  0  0  0
  9 21  1  0  0  0  0
 10 11  1  0  0  0  0
 11 29  1  1  0  0  0
 12 19  2  0  0  0  0
 13 15  1  0  0  0  0
 15 31  1  0  0  0  0
 16 23  1  0  0  0  0
 16 24  2  0  0  0  0
 17 20  1  0  0  0  0
 18 21  1  0  0  0  0
 19 20  1  0  0  0  0
 20 27  2  0  0  0  0
 22 25  1  0  0  0  0
 22 26  2  0  0  0  0
 22 32  1  0  0  0  0
 23 25  1  0  0  0  0
M  END
>  <DSSTox_RID>
20378

>  <DSSTox_CID>
378

>  <DSSTox_Generic_SID>
20378

>  <DSSTox_FileID>
393_CPDBAS_v5d

>  <STRUCTURE_Formula>
C25H31NO6

>  <STRUCTURE_MolecularWeight>
441.5167

>  <STRUCTURE_ChemicalType>
defined organic

>  <STRUCTURE_TestedForm_DefinedOrganic>
parent

>  <STRUCTURE_Shown>
tested chemical

>  <TestSubstance_ChemicalName>
Deflazacort

>  <TestSubstance_CASRN>
14484-47-0

>  <TestSubstance_Description>
single chemical compound

>  <ChemicalNote>
stereochem, tautomers

>  <STRUCTURE_ChemicalName_IUPAC>
2-[(4aR,4bS,5S,6aS,6bS,9aR,10aS,10bS)-5-hydroxy-4a,6a,8-trimethyl-2-oxo-2,4a,4b,5,6,6a,9a,10,10a,10b,11,12-dodecahydro-6bH-naphtho[2',1':4,5]indeno[1,2-d][1,3]oxazol-6b-yl]-2-oxoethyl acetate

>  <STRUCTURE_SMILES>
CC(=O)OCC(=O)[C@@]53/N=C(/C)O[C@@H]5C[C@H]2[C@@H]4CC\C1=C\C(=O)\C=C/[C@]1(C)[C@H]4[C@@H](O)C[C@@]23C

>  <STRUCTURE_Parent_SMILES>
CC(=O)OCC(=O)[C@@]53/N=C(/C)O[C@@H]5C[C@H]2[C@@H]4CC\C1=C\C(=O)\C=C/[C@]1(C)[C@H]4[C@@H](O)C[C@@]23C

>  <STRUCTURE_InChI>
InChI=1/C25H31NO6/c1-13-26-25(20(30)12-31-14(2)27)21(32-13)10-18-17-6-5-15-9-16(28)7-8-23(15,3)22(17)19(29)11-24(18,25)4/h7-9,17-19,21-22,29H,5-6,10-12H2,1-4H3/t17-,18-,19-,21+,22+,23-,24-,25+/m0/s1

>  <STRUCTURE_InChIKey>
FBHSPRKOSMHSIF-GRMWVWQJBC

>  <StudyType>
Carcinogenicity

>  <Endpoint>
TD50; Tumor Target Sites

>  <Species>
rat

>  <ActivityScore_CPDBAS_Rat>
50

>  <TD50_Rat_Note>
TD50 not calculated by CPDB Source; TD50_Rat_mmol was not calculated, but Activiity Score is assigned value of "50" to indicate active

>  <TargetSites_Rat_Male>
bone

>  <TargetSites_Rat_Female>
no positive results

>  <ActivityOutcome_CPDBAS_Rat>
active

>  <ActivityOutcome_CPDBAS_SingleCellCall>
active

>  <Note_CPDBAS>
Rat added v2a

>  <ChemicalPage_URL>
http://potency.berkeley.edu/chempages/DEFLAZACORT.html

$$$$



 24 27  0  0  1  0  0  0  0  0999 V2000
    3.4767   -3.6917    0.0000 C   0  0  1  0  0  0  0  0  0  0  0  0
    6.9354   -1.6846    0.0000 C   0  0  1  0  0  0  0  0  0  0  0  0
    3.4767   -5.0179    0.0000 C   0  0  0  0  0  0  0  0  0  0  0  0
    4.6146   -3.0197    0.0000 C   0  0  2  0  0  0  0  0  0  0  0  0
    6.9354   -3.0197    0.0000 C   0  0  2  0  0  0  0  0  0  0  0  0
    5.7795   -3.6917    0.0000 C   0  0  2  0  0  0  0  0  0  0  0  0
    4.6146   -5.6809    0.0000 C   0  0  0  0  0  0  0  0  0  0  0  0
    8.1899   -1.2724    0.0000 C   0  0  0  0  0  0  0  0  0  0  0  0
    5.7705   -1.0305    0.0000 C   0  0  0  0  0  0  0  0  0  0  0  0
    5.7795   -5.0358    0.0000 C   0  0  0  0  0  0  0  0  0  0  0  0
    4.6146   -1.6846    0.0000 C   0  0  0  0  0  0  0  0  0  0  0  0
    2.3208   -3.0197    0.0000 C   0  0  0  0  0  0  0  0  0  0  0  0
    8.1899   -3.4229    0.0000 C   0  0  0  0  0  0  0  0  0  0  0  0
    2.3208   -5.6809    0.0000 C   0  0  0  0  0  0  0  0  0  0  0  0
    8.9605   -2.3476    0.0000 C   0  0  0  0  0  0  0  0  0  0  0  0
    8.6200    0.0000    0.0000 O   0  0  0  0  0  0  0  0  0  0  0  0
    1.1559   -3.6917    0.0000 C   0  0  0  0  0  0  0  0  0  0  0  0
    1.1559   -5.0179    0.0000 C   0  0  2  0  0  0  0  0  0  0  0  0
    3.4767   -2.3566    0.0000 C   0  0  0  0  0  0  0  0  0  0  0  0
    6.9354   -0.3943    0.0000 C   0  0  0  0  0  0  0  0  0  0  0  0
    0.0000   -5.6809    0.0000 O   0  0  0  0  0  0  0  0  0  0  0  0
    5.7795   -2.3566    0.0000 H   0  0  0  0  0  0  0  0  0  0  0  0
    6.9354   -4.3458    0.0000 H   0  0  0  0  0  0  0  0  0  0  0  0
    4.6146   -4.3458    0.0000 H   0  0  0  0  0  0  0  0  0  0  0  0
  1  3  1  0  0  0  0
  1  4  1  0  0  0  0
  1 12  1  0  0  0  0
  1 19  1  1  0  0  0
  2  9  1  0  0  0  0
  2  8  1  0  0  0  0
  2 20  1  1  0  0  0
  2  5  1  0  0  0  0
  3  7  2  0  0  0  0
  3 14  1  0  0  0  0
  4  6  1  0  0  0  0
  4 11  1  0  0  0  0
  4 24  1  6  0  0  0
  5  6  1  0  0  0  0
  5 13  1  0  0  0  0
  5 23  1  6  0  0  0
  6 10  1  0  0  0  0
  6 22  1  1  0  0  0
  7 10  1  0  0  0  0
  8 16  2  0  0  0  0
  8 15  1  0  0  0  0
  9 11  1  0  0  0  0
 12 17  1  0  0  0  0
 13 15  1  0  0  0  0
 14 18  1  0  0  0  0
 17 18  1  0  0  0  0
 18 21  1  1  0  0  0
M  END
>  <DSSTox_RID>
20379

>  <DSSTox_CID>
379

>  <DSSTox_Generic_SID>
20379

>  <DSSTox_FileID>
394_CPDBAS_v5d

>  <STRUCTURE_Formula>
C19H28O2

>  <STRUCTURE_MolecularWeight>
288.4244

>  <STRUCTURE_ChemicalType>
defined organic

>  <STRUCTURE_TestedForm_DefinedOrganic>
parent

>  <STRUCTURE_Shown>
tested chemical

>  <TestSubstance_ChemicalName>
Dehydroepiandrosterone

>  <TestSubstance_CASRN>
53-43-0

>  <TestSubstance_Description>
single chemical compound

>  <ChemicalNote>
stereochem

>  <STRUCTURE_ChemicalName_IUPAC>
(3beta)-3-hydroxyandrost-5-en-17-one

>  <STRUCTURE_SMILES>
O[C@@H]3C\C4=C\C[C@@H]2[C@H](CC[C@]1(C)C(=O)CC[C@H]12)[C@@]4(C)CC3

>  <STRUCTURE_Parent_SMILES>
O[C@@H]3C\C4=C\C[C@@H]2[C@H](CC[C@]1(C)C(=O)CC[C@H]12)[C@@]4(C)CC3

>  <STRUCTURE_InChI>
InChI=1/C19H28O2/c1-18-9-7-13(20)11-12(18)3-4-14-15-5-6-17(21)19(15,2)10-8-16(14)18/h3,13-16,20H,4-11H2,1-2H3/t13-,14-,15-,16-,18-,19-/m0/s1

>  <STRUCTURE_InChIKey>
FMGSKLZLMKYGDP-USOAJAOKBL

>  <StudyType>
Carcinogenicity

>  <Endpoint>
TD50; Tumor Target Sites

>  <Species>
rat

>  <TD50_Rat_mg>
83.5

>  <TD50_Rat_mmol>
0.29

>  <ActivityScore_CPDBAS_Rat>
31

>  <TD50_Rat_Note>
TD50 is harmonic mean of more than one positive test

>  <TargetSites_Rat_Male>
liver

>  <TargetSites_Rat_Female>
liver

>  <ActivityOutcome_CPDBAS_Rat>
active

>  <ActivityOutcome_CPDBAS_SingleCellCall>
active

>  <ActivityOutcome_CPDBAS_MultiCellCall>
active

>  <ActivityOutcome_CPDBAS_MultiCellCall_Details>
multisex active

>  <Note_CPDBAS>
TD50 modified v3a; TargetSites_Rat modified v3a

>  <ChemicalPage_URL>
http://potency.berkeley.edu/chempages/DEHYDROEPIANDROSTERONE.html

$$$$



 27 30  0  0  1  0  0  0  0  0999 V2000
    5.7622   -3.6914    0.0000 C   0  0  1  0  0  0  0  0  0  0  0  0
    9.2285   -1.6881    0.0000 C   0  0  1  0  0  0  0  0  0  0  0  0
    5.7622   -5.0306    0.0000 C   0  0  0  0  0  0  0  0  0  0  0  0
    6.9101   -3.0161    0.0000 C   0  0  2  0  0  0  0  0  0  0  0  0
    9.2285   -3.0161    0.0000 C   0  0  2  0  0  0  0  0  0  0  0  0
    8.0805   -3.6914    0.0000 C   0  0  2  0  0  0  0  0  0  0  0  0
    6.9101   -5.6834    0.0000 C   0  0  0  0  0  0  0  0  0  0  0  0
   10.4889   -1.2717    0.0000 C   0  0  0  0  0  0  0  0  0  0  0  0
    8.0580   -1.0354    0.0000 C   0  0  0  0  0  0  0  0  0  0  0  0
    8.0805   -5.0419    0.0000 C   0  0  0  0  0  0  0  0  0  0  0  0
    6.9101   -1.6881    0.0000 C   0  0  0  0  0  0  0  0  0  0  0  0
    4.6142   -3.0161    0.0000 C   0  0  0  0  0  0  0  0  0  0  0  0
   10.4889   -3.4213    0.0000 C   0  0  0  0  0  0  0  0  0  0  0  0
    4.6142   -5.6834    0.0000 C   0  0  0  0  0  0  0  0  0  0  0  0
   11.2542   -2.3409    0.0000 C   0  0  0  0  0  0  0  0  0  0  0  0
   10.9166    0.0000    0.0000 O   0  0  0  0  0  0  0  0  0  0  0  0
    3.4550   -3.6914    0.0000 C   0  0  0  0  0  0  0  0  0  0  0  0
    3.4550   -5.0306    0.0000 C   0  0  2  0  0  0  0  0  0  0  0  0
    5.7622   -2.3634    0.0000 C   0  0  0  0  0  0  0  0  0  0  0  0
    9.2285   -0.4052    0.0000 C   0  0  0  0  0  0  0  0  0  0  0  0
    2.3071   -5.6834    0.0000 O   0  0  0  0  0  0  0  0  0  0  0  0
    8.0805   -2.3634    0.0000 H   0  0  0  0  0  0  0  0  0  0  0  0
    9.2285   -4.3554    0.0000 H   0  0  0  0  0  0  0  0  0  0  0  0
    6.9101   -4.3554    0.0000 H   0  0  0  0  0  0  0  0  0  0  0  0
    1.1479   -5.0194    0.0000 C   0  0  0  0  0  0  0  0  0  0  0  0
    1.1479   -3.6914    0.0000 O   0  0  0  0  0  0  0  0  0  0  0  0
    0.0000   -5.6834    0.0000 C   0  0  0  0  0  0  0  0  0  0  0  0
  1  3  1  0  0  0  0
  1  4  1  0  0  0  0
  1 12  1  0  0  0  0
  1 19  1  1  0  0  0
  2  9  1  0  0  0  0
  2  8  1  0  0  0  0
  2 20  1  1  0  0  0
  2  5  1  0  0  0  0
  3  7  2  0  0  0  0
  3 14  1  0  0  0  0
  4  6  1  0  0  0  0
  4 11  1  0  0  0  0
  4 24  1  6  0  0  0
  5  6  1  0  0  0  0
  5 13  1  0  0  0  0
  5 23  1  6  0  0  0
  6 10  1  0  0  0  0
  6 22  1  1  0  0  0
  7 10  1  0  0  0  0
  8 16  2  0  0  0  0
  8 15  1  0  0  0  0
  9 11  1  0  0  0  0
 12 17  1  0  0  0  0
 13 15  1  0  0  0  0
 14 18  1  0  0  0  0
 17 18  1  0  0  0  0
 18 21  1  1  0  0  0
 21 25  1  0  0  0  0
 25 26  2  0  0  0  0
 25 27  1  0  0  0  0
M  END
>  <DSSTox_RID>
20380

>  <DSSTox_CID>
380

>  <DSSTox_Generic_SID>
20380

>  <DSSTox_FileID>
395_CPDBAS_v5d

>  <STRUCTURE_Formula>
C21H30O3

>  <STRUCTURE_MolecularWeight>
330.4611

>  <STRUCTURE_ChemicalType>
defined organic

>  <STRUCTURE_TestedForm_DefinedOrganic>
parent

>  <STRUCTURE_Shown>
tested chemical

>  <TestSubstance_ChemicalName>
Dehydroepiandrosterone acetate

>  <TestSubstance_CASRN>
853-23-6

>  <TestSubstance_Description>
single chemical compound

>  <ChemicalNote>
stereochem

>  <STRUCTURE_ChemicalName_IUPAC>
(3beta)-17-oxoandrost-5-en-3-yl acetate

>  <STRUCTURE_SMILES>
CC(=O)O[C@@H]3C\C4=C\C[C@@H]2[C@H](CC[C@]1(C)C(=O)CC[C@H]12)[C@@]4(C)CC3

>  <STRUCTURE_Parent_SMILES>
CC(=O)O[C@@H]3C\C4=C\C[C@@H]2[C@H](CC[C@]1(C)C(=O)CC[C@H]12)[C@@]4(C)CC3

>  <STRUCTURE_InChI>
InChI=1/C21H30O3/c1-13(22)24-15-8-10-20(2)14(12-15)4-5-16-17-6-7-19(23)21(17,3)11-9-18(16)20/h4,15-18H,5-12H2,1-3H3/t15-,16-,17-,18-,20-,21-/m0/s1

>  <STRUCTURE_InChIKey>
NCMZQTLCXHGLOK-ZKHIMWLXBR

>  <StudyType>
Carcinogenicity

>  <Endpoint>
TD50; Tumor Target Sites

>  <Species>
rat

>  <TD50_Rat_mg>
49.6

>  <TD50_Rat_mmol>
0.15

>  <ActivityScore_CPDBAS_Rat>
34

>  <TD50_Rat_Note>
TD50 is harmonic mean of more than one positive test

>  <TargetSites_Rat_Male>
liver

>  <TargetSites_Rat_Female>
liver

>  <ActivityOutcome_CPDBAS_Rat>
active

>  <ActivityOutcome_CPDBAS_SingleCellCall>
active

>  <ActivityOutcome_CPDBAS_MultiCellCall>
active

>  <ActivityOutcome_CPDBAS_MultiCellCall_Details>
multisex active

>  <Note_CPDBAS>
Rat modified v5a

>  <ChemicalPage_URL>
http://potency.berkeley.edu/chempages/DEHYDROEPIANDROSTERONE%20ACETATE.html

$$$$



 28 31  0  0  1  0  0  0  0  0999 V2000
    4.7997   -3.6897    0.0000 C   0  0  1  0  0  0  0  0  0  0  0  0
    8.2530   -1.6855    0.0000 C   0  0  1  0  0  0  0  0  0  0  0  0
    4.7997   -5.0258    0.0000 C   0  0  0  0  0  0  0  0  0  0  0  0
    5.9405   -3.0216    0.0000 C   0  0  2  0  0  0  0  0  0  0  0  0
    8.2530   -3.0216    0.0000 C   0  0  2  0  0  0  0  0  0  0  0  0
    7.1122   -3.6897    0.0000 C   0  0  2  0  0  0  0  0  0  0  0  0
    5.9405   -5.6836    0.0000 C   0  0  0  0  0  0  0  0  0  0  0  0
    9.5069   -1.2744    0.0000 C   0  0  0  0  0  0  0  0  0  0  0  0
    7.0916   -1.0278    0.0000 C   0  0  0  0  0  0  0  0  0  0  0  0
    7.1122   -5.0463    0.0000 C   0  0  0  0  0  0  0  0  0  0  0  0
    5.9405   -1.6855    0.0000 C   0  0  0  0  0  0  0  0  0  0  0  0
    3.6383   -3.0216    0.0000 C   0  0  0  0  0  0  0  0  0  0  0  0
    9.5069   -3.4327    0.0000 C   0  0  0  0  0  0  0  0  0  0  0  0
    3.6383   -5.6836    0.0000 C   0  0  0  0  0  0  0  0  0  0  0  0
   10.2777   -2.3433    0.0000 C   0  0  0  0  0  0  0  0  0  0  0  0
    9.9385    0.0000    0.0000 O   0  0  0  0  0  0  0  0  0  0  0  0
    2.4769   -3.6897    0.0000 C   0  0  0  0  0  0  0  0  0  0  0  0
    2.4769   -5.0258    0.0000 C   0  0  2  0  0  0  0  0  0  0  0  0
    4.7997   -2.3639    0.0000 C   0  0  0  0  0  0  0  0  0  0  0  0
    8.2530   -0.3906    0.0000 C   0  0  0  0  0  0  0  0  0  0  0  0
    1.3361   -5.6836    0.0000 O   0  0  0  0  0  0  0  0  0  0  0  0
    7.1122   -2.3639    0.0000 H   0  0  0  0  0  0  0  0  0  0  0  0
    8.2530   -4.3475    0.0000 H   0  0  0  0  0  0  0  0  0  0  0  0
    5.9405   -4.3475    0.0000 H   0  0  0  0  0  0  0  0  0  0  0  0
    1.3361   -7.0094    0.0000 S   0  0  0  0  0  0  0  0  0  0  0  0
    2.6619   -7.0094    0.0000 O   0  0  0  0  0  0  0  0  0  0  0  0
    0.0000   -7.0094    0.0000 O   0  0  0  0  0  0  0  0  0  0  0  0
    1.3361   -8.3455    0.0000 O   0  0  0  0  0  0  0  0  0  0  0  0
  1  3  1  0  0  0  0
  1  4  1  0  0  0  0
  1 12  1  0  0  0  0
  1 19  1  1  0  0  0
  2  9  1  0  0  0  0
  2  8  1  0  0  0  0
  2 20  1  1  0  0  0
  2  5  1  0  0  0  0
  3  7  2  0  0  0  0
  3 14  1  0  0  0  0
  4  6  1  0  0  0  0
  4 11  1  0  0  0  0
  4 24  1  6  0  0  0
  5  6  1  0  0  0  0
  5 13  1  0  0  0  0
  5 23  1  6  0  0  0
  6 10  1  0  0  0  0
  6 22  1  1  0  0  0
  7 10  1  0  0  0  0
  8 16  2  0  0  0  0
  8 15  1  0  0  0  0
  9 11  1  0  0  0  0
 12 17  1  0  0  0  0
 13 15  1  0  0  0  0
 14 18  1  0  0  0  0
 17 18  1  0  0  0  0
 18 21  1  1  0  0  0
 21 25  1  0  0  0  0
 25 26  2  0  0  0  0
 25 27  2  0  0  0  0
 25 28  1  0  0  0  0
M  END
>  <DSSTox_RID>
40785

>  <DSSTox_CID>
20228

>  <DSSTox_Generic_SID>
40228

>  <DSSTox_FileID>
396_CPDBAS_v5d

>  <STRUCTURE_Formula>
C19H28O5S

>  <STRUCTURE_MolecularWeight>
368.4872

>  <STRUCTURE_ChemicalType>
defined organic

>  <STRUCTURE_TestedForm_DefinedOrganic>
parent

>  <STRUCTURE_Shown>
tested chemical

>  <TestSubstance_ChemicalName>
Dehydroepiandrosterone sulfate

>  <TestSubstance_CASRN>
651-48-9

>  <TestSubstance_Description>
single chemical compound

>  <ChemicalNote>
stereochem

>  <STRUCTURE_ChemicalName_IUPAC>
(3beta)-17-oxoandrost-5-en-3-yl hydrogen sulfate

>  <STRUCTURE_SMILES>
O=C3[C@@]2(C)CC[C@]1([H])[C@](CC[C@H](OS(=O)(O)=O)C4)(C)C4=CC[C@]([H])1[C@@]([H])2CC3

>  <STRUCTURE_Parent_SMILES>
O=C3[C@@]2(C)CC[C@]1([H])[C@](CC[C@H](OS(=O)(O)=O)C4)(C)C4=CC[C@]([H])1[C@@]([H])2CC3

>  <STRUCTURE_InChI>
InChI=1/C19H28O5S/c1-18-9-7-13(24-25(21,22)23)11-12(18)3-4-14-15-5-6-17(20)19(15,2)10-8-16(14)18/h3,13-16H,4-11H2,1-2H3,(H,21,22,23)/t13-,14-,15-,16-,18-,19-/m0/s1/f/h21H

>  <STRUCTURE_InChIKey>
CZWCKYRVOZZJNM-USHNPXJKDC

>  <StudyType>
Carcinogenicity

>  <Endpoint>
TD50; Tumor Target Sites

>  <Species>
mouse

>  <ActivityScore_CPDBAS_Mouse>
0

>  <TD50_Mouse_Note>
no positive results

>  <TargetSites_Mouse_Male>
no positive results

>  <TargetSites_Mouse_Female>
no positive results

>  <ActivityOutcome_CPDBAS_Mouse>
inactive

>  <ActivityOutcome_CPDBAS_SingleCellCall>
inactive

>  <ActivityOutcome_CPDBAS_MultiCellCall>
inactive

>  <ActivityOutcome_CPDBAS_MultiCellCall_Details>
multisex inactive

>  <Note_CPDBAS>
Mouse added v5a; chemical added v5a

>  <ChemicalPage_URL>
http://potency.berkeley.edu/chempages/DEHYDROEPIANDROSTERONE%20SULFATE.html

$$$$



 30 32  0  0  1  0  0  0  0  0999 V2000
    4.1832   -1.0333    0.0000 C   0  0  0  0  0  0  0  0  0  0  0  0
    3.4665   -2.1999    0.0000 C   0  0  2  0  0  0  0  0  0  0  0  0
    4.8498   -2.1999    0.0000 C   0  0  1  0  0  0  0  0  0  0  0  0
    6.0498   -2.8666    0.0000 C   0  0  0  0  0  0  0  0  0  0  0  0
    2.3499   -2.8332    0.0000 C   0  0  0  0  0  0  0  0  0  0  0  0
    7.2164   -2.1999    0.0000 O   0  0  0  0  0  0  0  0  0  0  0  0
    1.1500   -2.1999    0.0000 C   0  0  0  0  0  0  0  0  0  0  0  0
    8.3664   -5.3998    0.0000 N   0  0  0  0  0  0  0  0  0  0  0  0
    8.3664   -4.1999    0.0000 C   0  0  0  0  0  0  0  0  0  0  0  0
    8.3664   -2.8666    0.0000 C   0  0  2  0  0  0  0  0  0  0  0  0
    9.5663   -2.2333    0.0000 C   0  0  0  0  0  0  0  0  0  0  0  0
    6.0498   -4.1999    0.0000 O   0  0  0  0  0  0  0  0  0  0  0  0
   10.7330   -2.8999    0.0000 C   0  0  0  0  0  0  0  0  0  0  0  0
   11.9496   -2.2833    0.0000 C   0  0  0  0  0  0  0  0  0  0  0  0
   13.0996   -2.8832    0.0000 O   0  0  0  0  0  0  0  0  0  0  0  0
    4.8498    0.0000    0.0000 C   0  0  0  0  0  0  0  0  0  0  0  0
    3.6332    0.0000    0.0000 C   0  0  0  0  0  0  0  0  0  0  0  0
    0.0000   -2.8332    0.0000 Br  0  0  0  0  0  0  0  0  0  0  0  0
    1.1500   -0.8333    0.0000 Br  0  0  0  0  0  0  0  0  0  0  0  0
   14.2995   -2.1999    0.0000 C   0  0  0  0  0  0  0  0  0  0  0  0
    9.5663   -0.9000    0.0000 C   0  0  0  0  0  0  0  0  0  0  0  0
   10.7330   -0.1500    0.0000 C   0  0  0  0  0  0  0  0  0  0  0  0
   11.9496   -0.9000    0.0000 C   0  0  0  0  0  0  0  0  0  0  0  0
   14.2995   -0.9000    0.0000 C   0  0  0  0  0  0  0  0  0  0  0  0
   15.4995   -2.8832    0.0000 C   0  0  0  0  0  0  0  0  0  0  0  0
   16.6661   -2.2833    0.0000 C   0  0  0  0  0  0  0  0  0  0  0  0
   15.4328   -0.2167    0.0000 C   0  0  0  0  0  0  0  0  0  0  0  0
   16.6661   -0.8666    0.0000 C   0  0  0  0  0  0  0  0  0  0  0  0
    3.1999   -3.3832    0.0000 H   0  0  0  0  0  0  0  0  0  0  0  0
    5.1332   -3.3832    0.0000 H   0  0  0  0  0  0  0  0  0  0  0  0
  1  2  1  0  0  0  0
  1  3  1  0  0  0  0
  1 16  1  0  0  0  0
  1 17  1  0  0  0  0
  2  5  1  6  0  0  0
  2 29  1  1  0  0  0
  2  3  1  0  0  0  0
  3  4  1  6  0  0  0
  3 30  1  1  0  0  0
  4  6  1  0  0  0  0
  4 12  2  0  0  0  0
  5  7  2  0  0  0  0
  6 10  1  0  0  0  0
  7 18  1  0  0  0  0
  7 19  1  0  0  0  0
  8  9  3  0  0  0  0
 10  9  1  1  0  0  0
 10 11  1  0  0  0  0
 11 13  1  0  0  0  0
 11 21  2  0  0  0  0
 13 14  2  0  0  0  0
 14 15  1  0  0  0  0
 14 23  1  0  0  0  0
 15 20  1  0  0  0  0
 20 24  1  0  0  0  0
 20 25  2  0  0  0  0
 21 22  1  0  0  0  0
 22 23  2  0  0  0  0
 24 27  2  0  0  0  0
 25 26  1  0  0  0  0
 26 28  2  0  0  0  0
 27 28  1  0  0  0  0
M  END
>  <DSSTox_RID>
20381

>  <DSSTox_CID>
381

>  <DSSTox_Generic_SID>
20381

>  <DSSTox_FileID>
397_CPDBAS_v5d

>  <STRUCTURE_Formula>
C22H19Br2NO3

>  <STRUCTURE_MolecularWeight>
505.1992

>  <STRUCTURE_ChemicalType>
defined organic

>  <STRUCTURE_TestedForm_DefinedOrganic>
parent

>  <STRUCTURE_Shown>
tested chemical

>  <TestSubstance_ChemicalName>
Deltamethrin

>  <TestSubstance_CASRN>
52918-63-5

>  <TestSubstance_Description>
single chemical compound

>  <ChemicalNote>
stereochem

>  <STRUCTURE_ChemicalName_IUPAC>
(S)-cyano[3-(phenyloxy)phenyl]methyl (1R,3R)-3-(2,2-dibromoethenyl)-2,2-dimethylcyclopropanecarboxylate

>  <STRUCTURE_SMILES>
Br/C(Br)=C/[C@H]3[C@@H](C(=O)O[C@H](C#N)c2cccc(Oc1ccccc1)c2)C3(C)C

>  <STRUCTURE_Parent_SMILES>
Br/C(Br)=C/[C@H]3[C@@H](C(=O)O[C@H](C#N)c2cccc(Oc1ccccc1)c2)C3(C)C

>  <STRUCTURE_InChI>
InChI=1/C22H19Br2NO3/c1-22(2)17(12-19(23)24)20(22)21(26)28-18(13-25)14-7-6-10-16(11-14)27-15-8-4-3-5-9-15/h3-12,17-18,20H,1-2H3/t17-,18+,20-/m0/s1

>  <STRUCTURE_InChIKey>
OWZREIFADZCYQD-NSHGMRRFBN

>  <StudyType>
Carcinogenicity

>  <Endpoint>
TD50; Tumor Target Sites

>  <Species>
rat; mouse

>  <ActivityOutcome_CPDBAS_Mutagenicity>
inactive

>  <ActivityScore_CPDBAS_Rat>
0

>  <TD50_Rat_Note>
no positive results

>  <TargetSites_Rat_Male>
no positive results

>  <TargetSites_Rat_Female>
no positive results

>  <ActivityOutcome_CPDBAS_Rat>
inactive

>  <ActivityScore_CPDBAS_Mouse>
0

>  <TD50_Mouse_Note>
no positive results

>  <TargetSites_Mouse_Male>
no positive results

>  <TargetSites_Mouse_Female>
no positive results

>  <ActivityOutcome_CPDBAS_Mouse>
inactive

>  <ActivityOutcome_CPDBAS_SingleCellCall>
inactive

>  <ActivityOutcome_CPDBAS_MultiCellCall>
inactive

>  <ActivityOutcome_CPDBAS_MultiCellCall_Details>
multisex inactive; multispecies inactive

>  <Note_CPDBAS>
Mutagenicity_SAL_CPDB added v3a

>  <ChemicalPage_URL>
http://potency.berkeley.edu/chempages/DELTAMETHRIN.html

$$$$



 23 26  0  0  1  0  0  0  0  0999 V2000
    5.4327   -2.4903    0.0000 C   0  0  2  0  0  0  0  0  0  0  0  0
    3.2759   -2.5051    0.0000 C   0  0  2  0  0  0  0  0  0  0  0  0
    4.3432   -3.1129    0.0000 C   0  0  1  0  0  0  0  0  0  0  0  0
    5.4327   -1.2526    0.0000 C   0  0  2  0  0  0  0  0  0  0  0  0
    6.1887   -1.8455    0.0000 O   0  0  0  0  0  0  0  0  0  0  0  0
    3.2759   -1.2526    0.0000 C   0  0  2  0  0  0  0  0  0  0  0  0
    2.1938   -3.1129    0.0000 C   0  0  1  0  0  0  0  0  0  0  0  0
    4.3432   -0.6448    0.0000 O   0  0  0  0  0  0  0  0  0  0  0  0
    4.6990   -1.8603    0.0000 C   0  0  0  0  0  0  0  0  0  0  0  0
    1.1117   -2.4903    0.0000 C   0  0  0  0  0  0  0  0  0  0  0  0
    1.1117   -1.2526    0.0000 C   0  0  0  0  0  0  0  0  0  0  0  0
    2.1938   -0.6448    0.0000 C   0  0  0  0  0  0  0  0  0  0  0  0
    6.9225   -3.1129    0.0000 C   0  0  0  0  0  0  0  0  0  0  0  0
    6.9225   -1.2526    0.0000 C   0  0  1  0  0  0  0  0  0  0  0  0
    0.0148   -3.1129    0.0000 O   0  0  0  0  0  0  0  0  0  0  0  0
    3.2759   -4.6397    0.0000 C   0  0  0  0  0  0  0  0  0  0  0  0
    2.1938   -4.3655    0.0000 O   0  0  0  0  0  0  0  0  0  0  0  0
    4.3432   -4.3655    0.0000 C   0  0  0  0  0  0  0  0  0  0  0  0
    7.4116   -0.7634    0.0000 O   0  0  0  0  0  0  0  0  0  0  0  0
    0.0000   -0.6596    0.0000 C   0  0  0  0  0  0  0  0  0  0  0  0
    4.3432   -5.2474    0.0000 O   0  0  0  0  0  0  0  0  0  0  0  0
    3.2759    0.0000    0.0000 H   0  0  0  0  0  0  0  0  0  0  0  0
    5.4327   -0.0445    0.0000 H   0  0  0  0  0  0  0  0  0  0  0  0
  1  3  1  0  0  0  0
  1  4  1  0  0  0  0
  1  5  1  6  0  0  0
  1  9  1  1  0  0  0
  2  3  1  0  0  0  0
  2  7  1  0  0  0  0
  2 16  1  6  0  0  0
  2  6  1  0  0  0  0
  3 13  1  0  0  0  0
  3 18  1  1  0  0  0
  4  8  1  0  0  0  0
  4 14  1  0  0  0  0
  4 23  1  1  0  0  0
  5  9  1  0  0  0  0
  6  8  1  0  0  0  0
  6 12  1  0  0  0  0
  6 22  1  6  0  0  0
  7 10  1  0  0  0  0
  7 17  1  6  0  0  0
 10 15  2  0  0  0  0
 10 11  1  0  0  0  0
 11 12  2  0  0  0  0
 11 20  1  0  0  0  0
 13 14  1  0  0  0  0
 14 19  1  6  0  0  0
 16 21  1  0  0  0  0
M  END
>  <DSSTox_RID>
20382

>  <DSSTox_CID>
382

>  <DSSTox_Generic_SID>
20382

>  <DSSTox_FileID>
398_CPDBAS_v5d

>  <STRUCTURE_Formula>
C15H20O6

>  <STRUCTURE_MolecularWeight>
296.3157

>  <STRUCTURE_ChemicalType>
defined organic

>  <STRUCTURE_TestedForm_DefinedOrganic>
parent

>  <STRUCTURE_Shown>
tested chemical

>  <TestSubstance_ChemicalName>
Deoxynivalenol

>  <TestSubstance_CASRN>
51481-10-8

>  <TestSubstance_Description>
single chemical compound

>  <ChemicalNote>
stereochem, tautomers

>  <STRUCTURE_ChemicalName_IUPAC>
(3alpha,7alpha)-3,7,15-trihydroxy-12,13-epoxytrichothec-9-en-8-one

>  <STRUCTURE_SMILES>
O[C@@H]1C(=O)C(\C)=C/[C@H]2O[C@@H]4[C@H](O)C[C@](C)([C@@]12CO)[C@@]34CO3

>  <STRUCTURE_Parent_SMILES>
O[C@@H]1C(=O)C(\C)=C/[C@H]2O[C@@H]4[C@H](O)C[C@](C)([C@@]12CO)[C@@]34CO3

>  <STRUCTURE_InChI>
InChI=1/C15H20O6/c1-7-3-9-14(5-16,11(19)10(7)18)13(2)4-8(17)12(21-9)15(13)6-20-15/h3,8-9,11-12,16-17,19H,4-6H2,1-2H3/t8-,9-,11-,12-,13-,14-,15+/m1/s1

>  <STRUCTURE_InChIKey>
LINOMUASTDIRTM-QGRHZQQGBF

>  <StudyType>
Carcinogenicity

>  <Endpoint>
TD50; Tumor Target Sites

>  <Species>
mouse

>  <ActivityScore_CPDBAS_Mouse>
0

>  <TD50_Mouse_Note>
no positive results

>  <TargetSites_Mouse_Male>
no positive results

>  <ActivityOutcome_CPDBAS_Mouse>
inactive

>  <ActivityOutcome_CPDBAS_SingleCellCall>
inactive

>  <Note_CPDBAS>
Mouse added v2a

>  <ChemicalPage_URL>
http://potency.berkeley.edu/chempages/DEOXYNIVALENOL.html

$$$$



 45 50  0  0  1  0  0  0  0  0999 V2000
    4.5135   -1.9618    0.0000 C   0  0  0  0  0  0  0  0  0  0  0  0
    4.5135   -0.6343    0.0000 C   0  0  0  0  0  0  0  0  0  0  0  0
    3.4073   -2.6255    0.0000 N   0  0  0  0  0  0  0  0  0  0  0  0
    6.7850   -5.8558    0.0000 C   0  0  1  0  0  0  0  0  0  0  0  0
    6.7850   -4.5578    0.0000 C   0  0  2  0  0  0  0  0  0  0  0  0
    5.6640   -2.6255    0.0000 C   0  0  2  0  0  0  0  0  0  0  0  0
    6.7703   -1.9618    0.0000 N   0  0  0  0  0  0  0  0  0  0  0  0
    7.8470   -3.9383    0.0000 C   0  0  1  0  0  0  0  0  0  0  0  0
    9.0123   -5.8558    0.0000 C   0  0  2  0  0  0  0  0  0  0  0  0
   11.3133   -5.8705    0.0000 C   0  0  0  0  0  0  0  0  0  0  0  0
    5.6640   -3.9383    0.0000 C   0  0  0  0  0  0  0  0  0  0  0  0
    2.2568   -0.6343    0.0000 C   0  0  0  0  0  0  0  0  0  0  0  0
    7.9060   -6.5048    0.0000 C   0  0  2  0  0  0  0  0  0  0  0  0
    2.2568   -1.9618    0.0000 C   0  0  0  0  0  0  0  0  0  0  0  0
   11.3133   -4.5873    0.0000 C   0  0  0  0  0  0  0  0  0  0  0  0
   11.3133   -1.9618    0.0000 C   0  0  0  0  0  0  0  0  0  0  0  0
    5.6640   -6.5785    0.0000 C   0  0  0  0  0  0  0  0  0  0  0  0
   10.1628   -6.5343    0.0000 O   0  0  0  0  0  0  0  0  0  0  0  0
    7.8470   -2.6255    0.0000 C   0  0  0  0  0  0  0  0  0  0  0  0
   12.4343   -2.6403    0.0000 C   0  0  0  0  0  0  0  0  0  0  0  0
   10.1923   -2.6403    0.0000 C   0  0  0  0  0  0  0  0  0  0  0  0
    9.0123   -4.5578    0.0000 C   0  0  0  0  0  0  0  0  0  0  0  0
    5.6198    0.0000    0.0000 C   0  0  0  0  0  0  0  0  0  0  0  0
   12.4343   -3.9530    0.0000 C   0  0  0  0  0  0  0  0  0  0  0  0
   10.1923   -3.9530    0.0000 C   0  0  0  0  0  0  0  0  0  0  0  0
    6.7703   -0.6343    0.0000 C   0  0  0  0  0  0  0  0  0  0  0  0
   12.4343   -6.5343    0.0000 O   0  0  0  0  0  0  0  0  0  0  0  0
    4.5430   -5.8853    0.0000 O   0  0  0  0  0  0  0  0  0  0  0  0
   11.3133   -0.6638    0.0000 O   0  0  0  0  0  0  0  0  0  0  0  0
    7.9060   -7.8323    0.0000 O   0  0  0  0  0  0  0  0  0  0  0  0
    5.6640   -7.8618    0.0000 O   0  0  0  0  0  0  0  0  0  0  0  0
   13.5995   -1.9618    0.0000 O   0  0  0  0  0  0  0  0  0  0  0  0
    9.0860   -1.9470    0.0000 O   0  0  0  0  0  0  0  0  0  0  0  0
    1.1505    0.0000    0.0000 C   0  0  0  0  0  0  0  0  0  0  0  0
    1.1505   -2.6255    0.0000 C   0  0  0  0  0  0  0  0  0  0  0  0
   12.4343    0.0000    0.0000 C   0  0  0  0  0  0  0  0  0  0  0  0
    9.0270   -8.4960    0.0000 C   0  0  0  0  0  0  0  0  0  0  0  0
    9.0860   -0.5458    0.0000 C   0  0  0  0  0  0  0  0  0  0  0  0
    6.8145   -8.4960    0.0000 C   0  0  0  0  0  0  0  0  0  0  0  0
   14.7500   -2.6255    0.0000 C   0  0  0  0  0  0  0  0  0  0  0  0
    0.0000   -0.6343    0.0000 C   0  0  0  0  0  0  0  0  0  0  0  0
    0.0000   -1.9618    0.0000 C   0  0  0  0  0  0  0  0  0  0  0  0
    4.5135   -3.4220    0.0000 H   0  0  0  0  0  0  0  0  0  0  0  0
    5.6345   -5.3248    0.0000 H   0  0  0  0  0  0  0  0  0  0  0  0
    8.9238   -3.2303    0.0000 H   0  0  0  0  0  0  0  0  0  0  0  0
  1  2  2  0  0  0  0
  1  3  1  0  0  0  0
  1  6  1  0  0  0  0
  2 12  1  0  0  0  0
  2 23  1  0  0  0  0
  3 14  1  0  0  0  0
  4  5  1  0  0  0  0
  4 13  1  0  0  0  0
  4 17  1  1  0  0  0
  5 11  1  0  0  0  0
  5  8  1  0  0  0  0
  5 44  1  6  0  0  0
  6  7  1  0  0  0  0
  6 11  1  0  0  0  0
  6 43  1  1  0  0  0
  7 19  1  0  0  0  0
  7 26  1  0  0  0  0
  8 22  1  0  0  0  0
  8 45  1  6  0  0  0
  8 19  1  0  0  0  0
  9 22  1  0  0  0  0
  9 18  1  1  0  0  0
  9 13  1  0  0  0  0
 10 18  1  0  0  0  0
 10 15  1  0  0  0  0
 10 27  2  0  0  0  0
 12 34  1  0  0  0  0
 12 14  2  0  0  0  0
 13 30  1  6  0  0  0
 14 35  1  0  0  0  0
 15 24  1  0  0  0  0
 15 25  2  0  0  0  0
 16 21  2  0  0  0  0
 16 29  1  0  0  0  0
 16 20  1  0  0  0  0
 17 28  2  0  0  0  0
 17 31  1  0  0  0  0
 20 24  2  0  0  0  0
 20 32  1  0  0  0  0
 21 25  1  0  0  0  0
 21 33  1  0  0  0  0
 23 26  1  0  0  0  0
 29 36  1  0  0  0  0
 30 37  1  0  0  0  0
 31 39  1  0  0  0  0
 32 40  1  0  0  0  0
 33 38  1  0  0  0  0
 34 41  2  0  0  0  0
 35 42  2  0  0  0  0
 41 42  1  0  0  0  0
M  END
>  <DSSTox_RID>
20383

>  <DSSTox_CID>
383

>  <DSSTox_Generic_SID>
20383

>  <DSSTox_FileID>
399_CPDBAS_v5d

>  <STRUCTURE_Formula>
C32H38N2O8

>  <STRUCTURE_MolecularWeight>
578.65272

>  <STRUCTURE_ChemicalType>
defined organic

>  <STRUCTURE_TestedForm_DefinedOrganic>
parent

>  <STRUCTURE_Shown>
tested chemical

>  <TestSubstance_ChemicalName>
Deserpidine

>  <TestSubstance_CASRN>
131-01-1

>  <TestSubstance_Description>
single chemical compound

>  <ChemicalNote>
stereochem, tautomers

>  <STRUCTURE_ChemicalName_IUPAC>
methyl (3beta,16beta,17alpha,18beta,20alpha)-17-(methyloxy)-18-({[3,4,5-tris(methyloxy)phenyl]carbonyl}oxy)yohimban-16-carboxylate

>  <STRUCTURE_SMILES>
O=C(C4=CC(OC)=C(C(OC)=C4)OC)O[C@@H]1C[C@@]3([H])[C@@](C[C@](N5C3)([H])C2=C(CC5)C(C=CC=C6)=C6N2)([H])[C@H]([C@](OC)=O)[C@H]1OC

>  <STRUCTURE_Parent_SMILES>
O=C(C4=CC(OC)=C(C(OC)=C4)OC)O[C@@H]1C[C@@]3([H])[C@@](C[C@](N5C3)([H])C2=C(CC5)C(C=CC=C6)=C6N2)([H])[C@H]([C@](OC)=O)[C@H]1OC

>  <STRUCTURE_InChI>
InChI=1/C32H38N2O8/c1-37-24-12-17(13-25(38-2)29(24)39-3)31(35)42-26-14-18-16-34-11-10-20-19-8-6-7-9-22(19)33-28(20)23(34)15-21(18)27(30(26)40-4)32(36)41-5/h6-9,12-13,18,21,23,26-27,30,33H,10-11,14-16H2,1-5H3/t18-,21+,23-,26-,27+,30+/m1/s1

>  <STRUCTURE_InChIKey>
CVBMAZKKCSYWQR-WCGOZPBSBL

>  <StudyType>
Carcinogenicity

>  <Endpoint>
TD50; Tumor Target Sites

>  <Species>
rat

>  <ActivityScore_CPDBAS_Rat>
0

>  <TD50_Rat_Note>
no positive results

>  <TargetSites_Rat_BothSexes>
no positive results

>  <ActivityOutcome_CPDBAS_Rat>
inactive

>  <ActivityOutcome_CPDBAS_SingleCellCall>
inactive

>  <Note_CPDBAS>
TD50_Rat modified v3a

>  <ChemicalPage_URL>
http://potency.berkeley.edu/chempages/DESERPIDINE.html

$$$$



 30 33  0  0  1  0  0  0  0  0999 V2000
    7.3085    4.2282    0.0000 C   0  0  1  0  0  0  0  0  0  0  0  0
    4.8875    2.8189    0.0000 C   0  0  2  0  0  0  0  0  0  0  0  0
    3.6713    2.1255    0.0000 C   0  0  2  0  0  0  0  0  0  0  0  0
    7.3085    2.8189    0.0000 C   0  0  2  0  0  0  0  0  0  0  0  0
    6.0923    2.1255    0.0000 C   0  0  2  0  0  0  0  0  0  0  0  0
    8.6498    4.6715    0.0000 C   0  0  2  0  0  0  0  0  0  0  0  0
    3.6713    0.7160    0.0000 C   0  0  0  0  0  0  0  0  0  0  0  0
    4.8875    4.2282    0.0000 C   0  0  2  0  0  0  0  0  0  0  0  0
    6.0923    4.9215    0.0000 C   0  0  0  0  0  0  0  0  0  0  0  0
    9.4794    3.5235    0.0000 C   0  0  1  0  0  0  0  0  0  0  0  0
    2.4664    2.8189    0.0000 C   0  0  0  0  0  0  0  0  0  0  0  0
    8.6498    2.4097    0.0000 C   0  0  0  0  0  0  0  0  0  0  0  0
    2.4664    0.0114    0.0000 C   0  0  0  0  0  0  0  0  0  0  0  0
    9.0248    6.0241    0.0000 C   0  0  0  0  0  0  0  0  0  0  0  0
    6.0923    0.7160    0.0000 C   0  0  0  0  0  0  0  0  0  0  0  0
    1.2503    2.1255    0.0000 C   0  0  0  0  0  0  0  0  0  0  0  0
    1.2503    0.7160    0.0000 C   0  0  0  0  0  0  0  0  0  0  0  0
    4.8875    0.0114    0.0000 C   0  0  0  0  0  0  0  0  0  0  0  0
    4.8761    1.6481    0.0000 F   0  0  0  0  0  0  0  0  0  0  0  0
    8.0359    7.0357    0.0000 O   0  0  0  0  0  0  0  0  0  0  0  0
    0.0000    0.0000    0.0000 O   0  0  0  0  0  0  0  0  0  0  0  0
   10.0478    4.6715    0.0000 O   0  0  0  0  0  0  0  0  0  0  0  0
    7.3085    5.6604    0.0000 C   0  0  0  0  0  0  0  0  0  0  0  0
    3.6485    4.9557    0.0000 O   0  0  0  0  0  0  0  0  0  0  0  0
    3.6713    3.5235    0.0000 C   0  0  0  0  0  0  0  0  0  0  0  0
   10.8775    3.5349    0.0000 C   0  0  0  0  0  0  0  0  0  0  0  0
   10.3774    6.3764    0.0000 C   0  0  0  0  0  0  0  0  0  0  0  0
   11.3662    5.3649    0.0000 O   0  0  0  0  0  0  0  0  0  0  0  0
    6.0923    3.5235    0.0000 H   0  0  0  0  0  0  0  0  0  0  0  0
    7.3085    1.4207    0.0000 H   0  0  0  0  0  0  0  0  0  0  0  0
  1  4  1  0  0  0  0
  1  6  1  0  0  0  0
  1  9  1  0  0  0  0
  1 23  1  1  0  0  0
  2  8  1  0  0  0  0
  2  3  1  0  0  0  0
  2 19  1  6  0  0  0
  2  5  1  0  0  0  0
  3  7  1  0  0  0  0
  3 11  1  0  0  0  0
  3 25  1  1  0  0  0
  4  5  1  0  0  0  0
  4 12  1  0  0  0  0
  4 30  1  6  0  0  0
  5 15  1  0  0  0  0
  5 29  1  1  0  0  0
  6 10  1  0  0  0  0
  6 14  1  0  0  0  0
  6 22  1  6  0  0  0
  7 13  2  0  0  0  0
  7 18  1  0  0  0  0
  8  9  1  0  0  0  0
  8 24  1  1  0  0  0
 10 26  1  6  0  0  0
 10 12  1  0  0  0  0
 11 16  2  0  0  0  0
 13 17  1  0  0  0  0
 14 20  2  0  0  0  0
 14 27  1  0  0  0  0
 15 18  1  0  0  0  0
 16 17  1  0  0  0  0
 17 21  2  0  0  0  0
 27 28  1  0  0  0  0
M  END
>  <DSSTox_RID>
20384

>  <DSSTox_CID>
384

>  <DSSTox_Generic_SID>
20384

>  <DSSTox_FileID>
400_CPDBAS_v5d

>  <STRUCTURE_Formula>
C22H29FO5

>  <STRUCTURE_MolecularWeight>
392.4611

>  <STRUCTURE_ChemicalType>
defined organic

>  <STRUCTURE_TestedForm_DefinedOrganic>
parent

>  <STRUCTURE_Shown>
tested chemical

>  <TestSubstance_ChemicalName>
Dexamethazone

>  <TestSubstance_CASRN>
50-02-2

>  <TestSubstance_Description>
single chemical compound

>  <ChemicalNote>
stereochem, tautomers

>  <STRUCTURE_ChemicalName_IUPAC>
(11beta,16alpha)-9-fluoro-11,17,21-trihydroxy-16-methylpregna-1,4-diene-3,20-dione

>  <STRUCTURE_SMILES>
OCC(=O)[C@@]4(O)[C@H](C)C[C@@H]1[C@]4(C)C[C@H](O)[C@]2(F)[C@@]3(C)/C=C\C(=O)/C=C3/CC[C@@H]12

>  <STRUCTURE_Parent_SMILES>
OCC(=O)[C@@]4(O)[C@H](C)C[C@@H]1[C@]4(C)C[C@H](O)[C@]2(F)[C@@]3(C)/C=C\C(=O)/C=C3/CC[C@@H]12

>  <STRUCTURE_InChI>
InChI=1/C22H29FO5/c1-12-8-16-15-5-4-13-9-14(25)6-7-19(13,2)21(15,23)17(26)10-20(16,3)22(12,28)18(27)11-24/h6-7,9,12,15-17,24,26,28H,4-5,8,10-11H2,1-3H3/t12-,15+,16+,17+,19+,20+,21+,22+/m1/s1

>  <STRUCTURE_InChIKey>
UREBDLICKHMUKA-CXSFZGCWBM

>  <StudyType>
Carcinogenicity

>  <Endpoint>
TD50; Tumor Target Sites

>  <Species>
rat

>  <ActivityScore_CPDBAS_Rat>
0

>  <TD50_Rat_Note>
no positive results

>  <TargetSites_Rat_Male>
no positive results

>  <ActivityOutcome_CPDBAS_Rat>
inactive

>  <ActivityOutcome_CPDBAS_SingleCellCall>
inactive

>  <ChemicalPage_URL>
http://potency.berkeley.edu/chempages/DEXAMETHAZONE.html

$$$$



 20 22  0  0  0  0  0  0  0  0999 V2000
    6.5477   -2.5129    0.0000 N   0  0  0  0  0  0  0  0  0  0  0  0
    7.6980   -3.1854    0.0000 C   0  0  0  0  0  0  0  0  0  0  0  0
    7.6980   -4.5126    0.0000 O   0  0  0  0  0  0  0  0  0  0  0  0
    8.8482   -2.5129    0.0000 C   0  0  0  0  0  0  0  0  0  0  0  0
    6.5477   -1.1857    0.0000 C   0  0  0  0  0  0  0  0  0  0  0  0
    5.3974   -0.5220    0.0000 O   0  0  0  0  0  0  0  0  0  0  0  0
    7.6980   -0.5220    0.0000 C   0  0  0  0  0  0  0  0  0  0  0  0
    5.3974   -3.1854    0.0000 C   0  0  0  0  0  0  0  0  0  0  0  0
    4.2472   -2.5129    0.0000 C   0  0  0  0  0  0  0  0  0  0  0  0
    3.9640   -1.2211    0.0000 C   0  0  0  0  0  0  0  0  0  0  0  0
    2.6456   -1.0795    0.0000 C   0  0  0  0  0  0  0  0  0  0  0  0
    2.1059   -2.2917    0.0000 C   0  0  0  0  0  0  0  0  0  0  0  0
    3.0880   -3.1854    0.0000 C   0  0  0  0  0  0  0  0  0  0  0  0
    3.0880   -4.5126    0.0000 C   0  0  0  0  0  0  0  0  0  0  0  0
    4.2472   -5.1762    0.0000 C   0  0  0  0  0  0  0  0  0  0  0  0
    5.3974   -4.5126    0.0000 C   0  0  0  0  0  0  0  0  0  0  0  0
    0.7786   -2.4333    0.0000 C   0  0  0  0  0  0  0  0  0  0  0  0
    0.0000   -1.3538    0.0000 C   0  0  0  0  0  0  0  0  0  0  0  0
    0.5397   -0.1416    0.0000 C   0  0  0  0  0  0  0  0  0  0  0  0
    1.8670    0.0000    0.0000 C   0  0  0  0  0  0  0  0  0  0  0  0
  1  2  1  0  0  0  0
  1  5  1  0  0  0  0
  1  8  1  0  0  0  0
  2  3  2  0  0  0  0
  2  4  1  0  0  0  0
  5  6  2  0  0  0  0
  5  7  1  0  0  0  0
  8  9  1  0  0  0  0
  8 16  2  0  0  0  0
  9 10  1  0  0  0  0
  9 13  2  0  0  0  0
 10 11  1  0  0  0  0
 11 12  2  0  0  0  0
 11 20  1  0  0  0  0
 12 13  1  0  0  0  0
 12 17  1  0  0  0  0
 13 14  1  0  0  0  0
 14 15  2  0  0  0  0
 15 16  1  0  0  0  0
 17 18  2  0  0  0  0
 18 19  1  0  0  0  0
 19 20  2  0  0  0  0
M  END
>  <DSSTox_RID>
20389

>  <DSSTox_CID>
389

>  <DSSTox_Generic_SID>
20389

>  <DSSTox_FileID>
405_CPDBAS_v5d

>  <STRUCTURE_Formula>
C17H15NO2

>  <STRUCTURE_MolecularWeight>
265.311

>  <STRUCTURE_ChemicalType>
defined organic

>  <STRUCTURE_TestedForm_DefinedOrganic>
parent

>  <STRUCTURE_Shown>
tested chemical

>  <TestSubstance_ChemicalName>
N-1-Diacetamidofluorene

>  <TestSubstance_CASRN>
63019-65-8

>  <TestSubstance_Description>
single chemical compound

>  <STRUCTURE_ChemicalName_IUPAC>
N-acetyl-N-9H-fluoren-1-ylacetamide

>  <STRUCTURE_SMILES>
CC(N(C1=CC=CC2=C1CC3=C2C=CC=C3)C(C)=O)=O

>  <STRUCTURE_Parent_SMILES>
CC(N(C1=CC=CC2=C1CC3=C2C=CC=C3)C(C)=O)=O

>  <STRUCTURE_InChI>
InChI=1/C17H15NO2/c1-11(19)18(12(2)20)17-9-5-8-15-14-7-4-3-6-13(14)10-16(15)17/h3-9H,10H2,1-2H3

>  <STRUCTURE_InChIKey>
SKNCUWLBDFPISU-UHFFFAOYAX

>  <StudyType>
Carcinogenicity

>  <Endpoint>
TD50; Tumor Target Sites

>  <Species>
rat

>  <TD50_Rat_mg>
19

>  <TD50_Rat_mmol>
0.0716

>  <ActivityScore_CPDBAS_Rat>
38

>  <TargetSites_Rat_Female>
ear Zymbals gland; mammary gland

>  <ActivityOutcome_CPDBAS_Rat>
active

>  <ActivityOutcome_CPDBAS_SingleCellCall>
active

>  <ActivityOutcome_CPDBAS_MultiCellCall>
active

>  <ActivityOutcome_CPDBAS_MultiCellCall_Details>
multisite active

>  <ChemicalPage_URL>
http://potency.berkeley.edu/chempages/N-1-DIACETAMIDOFLUORENE.html

$$$$



  8  7  0  0  0  0  0  0  0  0999 V2000
    5.7628   -1.9939    0.0000 C   0  0  0  0  0  0  0  0  0  0  0  0
    4.6103   -1.3312    0.0000 C   0  0  0  0  0  0  0  0  0  0  0  0
    4.6103    0.0000    0.0000 O   0  0  0  0  0  0  0  0  0  0  0  0
    3.4577   -1.9939    0.0000 N   0  0  0  0  0  0  0  0  0  0  0  0
    2.3051   -1.3312    0.0000 N   0  0  0  0  0  0  0  0  0  0  0  0
    1.1526   -1.9939    0.0000 C   0  0  0  0  0  0  0  0  0  0  0  0
    1.1526   -3.3252    0.0000 O   0  0  0  0  0  0  0  0  0  0  0  0
    0.0000   -1.3312    0.0000 C   0  0  0  0  0  0  0  0  0  0  0  0
  1  2  1  0  0  0  0
  2  3  2  0  0  0  0
  2  4  1  0  0  0  0
  4  5  1  0  0  0  0
  5  6  1  0  0  0  0
  6  7  2  0  0  0  0
  6  8  1  0  0  0  0
M  END
>  <DSSTox_RID>
20390

>  <DSSTox_CID>
390

>  <DSSTox_Generic_SID>
20390

>  <DSSTox_FileID>
406_CPDBAS_v5d

>  <STRUCTURE_Formula>
C4H8N2O2

>  <STRUCTURE_MolecularWeight>
116.1194

>  <STRUCTURE_ChemicalType>
defined organic

>  <STRUCTURE_TestedForm_DefinedOrganic>
parent

>  <STRUCTURE_Shown>
tested chemical

>  <TestSubstance_ChemicalName>
Diacetyl hydrazine

>  <TestSubstance_CASRN>
3148-73-0

>  <TestSubstance_Description>
single chemical compound

>  <STRUCTURE_ChemicalName_IUPAC>
N'-acetylacetohydrazide

>  <STRUCTURE_SMILES>
CC(=O)NNC(=O)C

>  <STRUCTURE_Parent_SMILES>
CC(=O)NNC(=O)C

>  <STRUCTURE_InChI>
InChI=1/C4H8N2O2/c1-3(7)5-6-4(2)8/h1-2H3,(H,5,7)(H,6,8)/f/h5-6H

>  <STRUCTURE_InChIKey>
ZLHNYIHIHQEHJQ-JYEHRPOACF

>  <StudyType>
Carcinogenicity

>  <Endpoint>
TD50; Tumor Target Sites

>  <Species>
mouse

>  <ActivityScore_CPDBAS_Mouse>
0

>  <TD50_Mouse_Note>
no positive results

>  <TargetSites_Mouse_Male>
no positive results

>  <TargetSites_Mouse_Female>
no positive results

>  <ActivityOutcome_CPDBAS_Mouse>
inactive

>  <ActivityOutcome_CPDBAS_SingleCellCall>
inactive

>  <ActivityOutcome_CPDBAS_MultiCellCall>
inactive

>  <ActivityOutcome_CPDBAS_MultiCellCall_Details>
multisex inactive

>  <ChemicalPage_URL>
http://potency.berkeley.edu/chempages/DIACETYL%20HYDRAZINE.html

$$$$



 18 18  0  0  0  0  0  0  0  0999 V2000
    4.6498   -3.4535    0.0000 O   0  0  0  0  0  0  0  0  0  0  0  0
    3.9878   -2.3050    0.0000 C   0  0  0  0  0  0  0  0  0  0  0  0
    2.6559   -2.3050    0.0000 C   0  0  0  0  0  0  0  0  0  0  0  0
    1.9939   -3.4535    0.0000 C   0  0  0  0  0  0  0  0  0  0  0  0
    0.6620   -3.4535    0.0000 C   0  0  0  0  0  0  0  0  0  0  0  0
    0.0000   -2.3050    0.0000 C   0  0  0  0  0  0  0  0  0  0  0  0
    0.6620   -1.1485    0.0000 C   0  0  0  0  0  0  0  0  0  0  0  0
    1.9939   -1.1485    0.0000 C   0  0  0  0  0  0  0  0  0  0  0  0
    2.6559   -4.6020    0.0000 C   0  0  0  0  0  0  0  0  0  0  0  0
    1.9939   -5.7585    0.0000 O   0  0  0  0  0  0  0  0  0  0  0  0
    3.9878   -4.6020    0.0000 O   0  0  0  0  0  0  0  0  0  0  0  0
    4.6498   -5.7585    0.0000 C   0  0  0  0  0  0  0  0  0  0  0  0
    5.9818   -5.7585    0.0000 C   0  0  0  0  0  0  0  0  0  0  0  0
    6.6438   -6.9069    0.0000 C   0  0  0  0  0  0  0  0  0  0  0  0
    4.6498   -1.1485    0.0000 O   0  0  0  0  0  0  0  0  0  0  0  0
    5.9818   -1.1485    0.0000 C   0  0  0  0  0  0  0  0  0  0  0  0
    6.6438    0.0000    0.0000 C   0  0  0  0  0  0  0  0  0  0  0  0
    7.9757    0.0000    0.0000 C   0  0  0  0  0  0  0  0  0  0  0  0
  1  2  2  0  0  0  0
  2  3  1  0  0  0  0
  2 15  1  0  0  0  0
  3  4  2  0  0  0  0
  3  8  1  0  0  0  0
  4  5  1  0  0  0  0
  4  9  1  0  0  0  0
  5  6  2  0  0  0  0
  6  7  1  0  0  0  0
  7  8  2  0  0  0  0
  9 10  2  0  0  0  0
  9 11  1  0  0  0  0
 11 12  1  0  0  0  0
 12 13  1  0  0  0  0
 13 14  2  0  0  0  0
 15 16  1  0  0  0  0
 16 17  1  0  0  0  0
 17 18  2  0  0  0  0
M  END
>  <DSSTox_RID>
20392

>  <DSSTox_CID>
392

>  <DSSTox_Generic_SID>
20392

>  <DSSTox_FileID>
408_CPDBAS_v5d

>  <STRUCTURE_Formula>
C14H14O4

>  <STRUCTURE_MolecularWeight>
246.2586

>  <STRUCTURE_ChemicalType>
defined organic

>  <STRUCTURE_TestedForm_DefinedOrganic>
parent

>  <STRUCTURE_Shown>
tested chemical

>  <TestSubstance_ChemicalName>
Diallyl phthalate

>  <TestSubstance_CASRN>
131-17-9

>  <TestSubstance_Description>
single chemical compound

>  <STRUCTURE_ChemicalName_IUPAC>
diallyl phthalate

>  <STRUCTURE_SMILES>
O=C(C1=C(C=CC=C1)C(=O)OCC=C)OCC=C

>  <STRUCTURE_Parent_SMILES>
O=C(C1=C(C=CC=C1)C(=O)OCC=C)OCC=C

>  <STRUCTURE_InChI>
InChI=1/C14H14O4/c1-3-9-17-13(15)11-7-5-6-8-12(11)14(16)18-10-4-2/h3-8H,1-2,9-10H2

>  <STRUCTURE_InChIKey>
QUDWYFHPNIMBFC-UHFFFAOYAG

>  <StudyType>
Carcinogenicity

>  <Endpoint>
TD50; Tumor Target Sites

>  <Species>
rat; mouse

>  <ActivityOutcome_CPDBAS_Mutagenicity>
inactive

>  <ActivityScore_CPDBAS_Rat>
0

>  <TD50_Rat_Note>
no positive results

>  <TargetSites_Rat_Male>
no positive results

>  <TargetSites_Rat_Female>
no positive results

>  <ActivityOutcome_CPDBAS_Rat>
inactive

>  <ActivityScore_CPDBAS_Mouse>
0

>  <TD50_Mouse_Note>
no positive results

>  <TargetSites_Mouse_Male>
no positive results

>  <TargetSites_Mouse_Female>
no positive results

>  <ActivityOutcome_CPDBAS_Mouse>
inactive

>  <ActivityOutcome_CPDBAS_SingleCellCall>
inactive

>  <ActivityOutcome_CPDBAS_MultiCellCall>
inactive

>  <ActivityOutcome_CPDBAS_MultiCellCall_Details>
multisex inactive; multispecies inactive

>  <NTP_TechnicalReport>
TR 242; TR 284

>  <ChemicalPage_URL>
http://potency.berkeley.edu/chempages/DIALLYL%20PHTHALATE.html

$$$$



  8  7  0  0  0  0  0  0  0  0999 V2000
    3.4577   -1.3312    0.0000 N   0  0  0  0  0  0  0  0  0  0  0  0
    3.4577    0.0000    0.0000 N   0  0  0  0  0  0  0  0  0  0  0  0
    4.6103   -1.9939    0.0000 C   0  0  0  0  0  0  0  0  0  0  0  0
    5.7628   -1.3312    0.0000 C   0  0  0  0  0  0  0  0  0  0  0  0
    5.7628    0.0000    0.0000 C   0  0  0  0  0  0  0  0  0  0  0  0
    2.3051   -1.9939    0.0000 C   0  0  0  0  0  0  0  0  0  0  0  0
    1.1526   -1.3312    0.0000 C   0  0  0  0  0  0  0  0  0  0  0  0
    0.0000   -1.9939    0.0000 C   0  0  0  0  0  0  0  0  0  0  0  0
  1  2  1  0  0  0  0
  1  3  1  0  0  0  0
  1  6  1  0  0  0  0
  3  4  1  0  0  0  0
  4  5  2  0  0  0  0
  6  7  1  0  0  0  0
  7  8  2  0  0  0  0
M  END
>  <DSSTox_RID>
20393

>  <DSSTox_CID>
393

>  <DSSTox_Generic_SID>
20393

>  <DSSTox_FileID>
409_CPDBAS_v5d

>  <STRUCTURE_Formula>
C6H12N2

>  <STRUCTURE_MolecularWeight>
112.1742

>  <STRUCTURE_ChemicalType>
defined organic

>  <STRUCTURE_TestedForm_DefinedOrganic>
parent

>  <STRUCTURE_Shown>
tested chemical

>  <TestSubstance_ChemicalName>
1,1-Diallylhydrazine

>  <TestSubstance_CASRN>
5164-11-4

>  <TestSubstance_Description>
single chemical compound

>  <STRUCTURE_ChemicalName_IUPAC>
1,1-diprop-2-en-1-ylhydrazine

>  <STRUCTURE_SMILES>
N(N)(CC=C)CC=C

>  <STRUCTURE_Parent_SMILES>
N(N)(CC=C)CC=C

>  <STRUCTURE_InChI>
InChI=1/C6H12N2/c1-3-5-8(7)6-4-2/h3-4H,1-2,5-7H2

>  <STRUCTURE_InChIKey>
UPVLRUMEBXYJMQ-UHFFFAOYAM

>  <StudyType>
Carcinogenicity

>  <Endpoint>
TD50; Tumor Target Sites

>  <Species>
mouse

>  <TD50_Mouse_mg>
29.6

>  <TD50_Mouse_mmol>
0.264

>  <ActivityScore_CPDBAS_Mouse>
35

>  <TD50_Mouse_Note>
TD50 is harmonic mean of more than one positive test

>  <TargetSites_Mouse_Male>
lung; stomach

>  <TargetSites_Mouse_Female>
lung; stomach

>  <ActivityOutcome_CPDBAS_Mouse>
active

>  <ActivityOutcome_CPDBAS_SingleCellCall>
active

>  <ActivityOutcome_CPDBAS_MultiCellCall>
active

>  <ActivityOutcome_CPDBAS_MultiCellCall_Details>
multisite active; multisex active

>  <ChemicalPage_URL>
http://potency.berkeley.edu/chempages/1,1-DIALLYLHYDRAZINE.html

$$$$



  9  8  0  0  0  0  0  0  0  0999 V2000
    2.6588    0.0000    0.0000 C   0  0  0  0  0  0  0  0  0  0  0  0
    1.9976   -1.1548    0.0000 C   0  0  0  0  0  0  0  0  0  0  0  0
    2.6588   -2.3049    0.0000 C   0  0  0  0  0  0  0  0  0  0  0  0
    1.9976   -3.4597    0.0000 N   0  0  0  0  0  0  0  0  0  0  0  0
    2.6588   -4.6098    0.0000 C   0  0  0  0  0  0  0  0  0  0  0  0
    3.9905   -4.6098    0.0000 C   0  0  0  0  0  0  0  0  0  0  0  0
    4.6563   -3.4597    0.0000 C   0  0  0  0  0  0  0  0  0  0  0  0
    0.6659   -3.4597    0.0000 N   0  0  0  0  0  0  0  0  0  0  0  0
    0.0000   -2.3049    0.0000 O   0  0  0  0  0  0  0  0  0  0  0  0
  1  2  2  0  0  0  0
  2  3  1  0  0  0  0
  3  4  1  0  0  0  0
  4  5  1  0  0  0  0
  4  8  1  0  0  0  0
  5  6  1  0  0  0  0
  6  7  2  0  0  0  0
  8  9  2  0  0  0  0
M  END
>  <DSSTox_RID>
20395

>  <DSSTox_CID>
395

>  <DSSTox_Generic_SID>
20395

>  <DSSTox_FileID>
411_CPDBAS_v5d

>  <STRUCTURE_Formula>
C6H10N2O

>  <STRUCTURE_MolecularWeight>
126.1578

>  <STRUCTURE_ChemicalType>
defined organic

>  <STRUCTURE_TestedForm_DefinedOrganic>
parent

>  <STRUCTURE_Shown>
tested chemical

>  <TestSubstance_ChemicalName>
Diallylnitrosamine

>  <TestSubstance_CASRN>
16338-97-9

>  <TestSubstance_Description>
single chemical compound

>  <STRUCTURE_ChemicalName_IUPAC>
N-nitroso-N-prop-2-en-1-ylprop-2-en-1-amine

>  <STRUCTURE_SMILES>
C=CCN(CC=C)N=O

>  <STRUCTURE_Parent_SMILES>
C=CCN(CC=C)N=O

>  <STRUCTURE_InChI>
InChI=1/C6H10N2O/c1-3-5-8(7-9)6-4-2/h3-4H,1-2,5-6H2

>  <STRUCTURE_InChIKey>
GRYFJBRXMFVEIL-UHFFFAOYAY

>  <StudyType>
Carcinogenicity

>  <Endpoint>
TD50; Tumor Target Sites

>  <Species>
rat; hamster

>  <ActivityOutcome_CPDBAS_Mutagenicity>
active

>  <TD50_Rat_mg>
33.9

>  <TD50_Rat_mmol>
0.269

>  <ActivityScore_CPDBAS_Rat>
32

>  <TD50_Rat_Note>
TD50 is harmonic mean of more than one positive test

>  <TargetSites_Rat_Male>
nasal cavity

>  <TargetSites_Rat_Female>
nasal cavity

>  <ActivityOutcome_CPDBAS_Rat>
active

>  <TD50_Hamster_mg>
1.54

>  <TD50_Hamster_mmol>
0.0122

>  <ActivityScore_CPDBAS_Hamster>
72

>  <TargetSites_Hamster_BothSexes>
nasal cavity

>  <ActivityOutcome_CPDBAS_Hamster>
active

>  <ActivityOutcome_CPDBAS_SingleCellCall>
active

>  <ActivityOutcome_CPDBAS_MultiCellCall>
active

>  <ActivityOutcome_CPDBAS_MultiCellCall_Details>
multisex active; multispecies active

>  <Note_CPDBAS>
Mutagenicity_SAL_CPDB added v3a

>  <ChemicalPage_URL>
http://potency.berkeley.edu/chempages/DIALLYLNITROSAMINE.html

$$$$



 16 17  0  0  0  0  0  0  0  0999 V2000
    8.3241   -0.4661    0.0000 N   0  0  0  0  0  0  0  0  0  0  0  0
    7.6582   -1.6149    0.0000 C   0  0  0  0  0  0  0  0  0  0  0  0
    8.3241   -2.7636    0.0000 N   0  0  0  0  0  0  0  0  0  0  0  0
    7.6582   -3.9207    0.0000 C   0  0  0  0  0  0  0  0  0  0  0  0
    6.3263   -3.9207    0.0000 N   0  0  0  0  0  0  0  0  0  0  0  0
    5.6687   -2.7636    0.0000 C   0  0  0  0  0  0  0  0  0  0  0  0
    6.3263   -1.6149    0.0000 N   0  0  0  0  0  0  0  0  0  0  0  0
    4.3369   -2.7636    0.0000 C   0  0  0  0  0  0  0  0  0  0  0  0
    3.5544   -3.8457    0.0000 C   0  0  0  0  0  0  0  0  0  0  0  0
    2.2891   -3.4295    0.0000 C   0  0  0  0  0  0  0  0  0  0  0  0
    2.2891   -2.1060    0.0000 C   0  0  0  0  0  0  0  0  0  0  0  0
    3.5544   -1.6898    0.0000 O   0  0  0  0  0  0  0  0  0  0  0  0
    1.2153   -1.3235    0.0000 N   0  3  0  0  0  0  0  0  0  0  0  0
    1.3568    0.0000    0.0000 O   0  5  0  0  0  0  0  0  0  0  0  0
    0.0000   -1.8646    0.0000 O   0  0  0  0  0  0  0  0  0  0  0  0
    8.3241   -5.0694    0.0000 N   0  0  0  0  0  0  0  0  0  0  0  0
  1  2  1  0  0  0  0
  2  3  2  0  0  0  0
  2  7  1  0  0  0  0
  3  4  1  0  0  0  0
  4  5  2  0  0  0  0
  4 16  1  0  0  0  0
  5  6  1  0  0  0  0
  6  7  2  0  0  0  0
  6  8  1  0  0  0  0
  8  9  2  0  0  0  0
  8 12  1  0  0  0  0
  9 10  1  0  0  0  0
 10 11  2  0  0  0  0
 11 12  1  0  0  0  0
 11 13  1  0  0  0  0
 13 14  1  0  0  0  0
 13 15  2  0  0  0  0
M  END
>  <DSSTox_RID>
20396

>  <DSSTox_CID>
396

>  <DSSTox_Generic_SID>
20396

>  <DSSTox_FileID>
412_CPDBAS_v5d

>  <STRUCTURE_Formula>
C7H6N6O3

>  <STRUCTURE_MolecularWeight>
222.1628

>  <STRUCTURE_ChemicalType>
defined organic

>  <STRUCTURE_TestedForm_DefinedOrganic>
parent

>  <STRUCTURE_Shown>
tested chemical

>  <TestSubstance_ChemicalName>
4,6-Diamino-2-(5-nitro-2-furyl)-s-triazine

>  <TestSubstance_CASRN>
720-69-4

>  <TestSubstance_Description>
single chemical compound

>  <STRUCTURE_ChemicalName_IUPAC>
6-(5-nitrofuran-2-yl)-1,3,5-triazine-2,4-diamine

>  <STRUCTURE_SMILES>
NC1=NC(=NC(=N1)C2=CC=C(O2)[N+]([O-])=O)N

>  <STRUCTURE_Parent_SMILES>
NC1=NC(=NC(=N1)C2=CC=C(O2)[N+]([O-])=O)N

>  <STRUCTURE_InChI>
InChI=1/C7H6N6O3/c8-6-10-5(11-7(9)12-6)3-1-2-4(16-3)13(14)15/h1-2H,(H4,8,9,10,11,12)/f/h8-9H2

>  <STRUCTURE_InChIKey>
SUDMLGKFWIJSEI-SPRAGNMICY

>  <StudyType>
Carcinogenicity

>  <Endpoint>
TD50; Tumor Target Sites

>  <Species>
rat

>  <ActivityOutcome_CPDBAS_Mutagenicity>
active

>  <TD50_Rat_mg>
1.71

>  <TD50_Rat_mmol>
0.0077

>  <ActivityScore_CPDBAS_Rat>
48

>  <TargetSites_Rat_Female>
mammary gland

>  <ActivityOutcome_CPDBAS_Rat>
active

>  <ActivityOutcome_CPDBAS_SingleCellCall>
active

>  <ChemicalPage_URL>
http://potency.berkeley.edu/chempages/4,6-DIAMINO-2-(5-NITRO-2-FURYL)-s-TRIAZINE.html

$$$$



 16 17  0  0  0  0  0  0  0  0999 V2000
    0.0000   -1.1519    0.0000 N   0  0  0  0  0  0  0  0  0  0  0  0
    1.3326   -1.1519    0.0000 C   0  0  0  0  0  0  0  0  0  0  0  0
    1.9877    0.0000    0.0000 C   0  0  0  0  0  0  0  0  0  0  0  0
    3.3203    0.0000    0.0000 C   0  0  0  0  0  0  0  0  0  0  0  0
    3.9866   -1.1519    0.0000 C   0  0  0  0  0  0  0  0  0  0  0  0
    3.3203   -2.3039    0.0000 C   0  0  0  0  0  0  0  0  0  0  0  0
    1.9877   -2.3039    0.0000 C   0  0  0  0  0  0  0  0  0  0  0  0
    5.3193   -1.1519    0.0000 N   0  0  0  0  0  0  0  0  0  0  0  0
    5.9743   -2.3039    0.0000 N   0  0  0  0  0  0  0  0  0  0  0  0
    7.3069   -2.3039    0.0000 C   0  0  0  0  0  0  0  0  0  0  0  0
    7.9733   -1.1519    0.0000 C   0  0  0  0  0  0  0  0  0  0  0  0
    9.3059   -1.1519    0.0000 C   0  0  0  0  0  0  0  0  0  0  0  0
    9.9609   -2.3039    0.0000 C   0  0  0  0  0  0  0  0  0  0  0  0
    9.3059   -3.4558    0.0000 C   0  0  0  0  0  0  0  0  0  0  0  0
    7.9733   -3.4558    0.0000 C   0  0  0  0  0  0  0  0  0  0  0  0
   11.2936   -2.3039    0.0000 N   0  0  0  0  0  0  0  0  0  0  0  0
  1  2  1  0  0  0  0
  2  3  2  0  0  0  0
  2  7  1  0  0  0  0
  3  4  1  0  0  0  0
  4  5  2  0  0  0  0
  5  6  1  0  0  0  0
  5  8  1  0  0  0  0
  6  7  2  0  0  0  0
  8  9  2  0  0  0  0
  9 10  1  0  0  0  0
 10 11  2  0  0  0  0
 10 15  1  0  0  0  0
 11 12  1  0  0  0  0
 12 13  2  0  0  0  0
 13 14  1  0  0  0  0
 13 16  1  0  0  0  0
 14 15  2  0  0  0  0
M  END
>  <DSSTox_RID>
20399

>  <DSSTox_CID>
399

>  <DSSTox_Generic_SID>
20399

>  <DSSTox_FileID>
415_CPDBAS_v5d

>  <STRUCTURE_Formula>
C12H12N4

>  <STRUCTURE_MolecularWeight>
212.2536

>  <STRUCTURE_ChemicalType>
defined organic

>  <STRUCTURE_TestedForm_DefinedOrganic>
parent

>  <STRUCTURE_Shown>
tested chemical

>  <TestSubstance_ChemicalName>
4,4'-Diaminoazobenzene

>  <TestSubstance_CASRN>
538-41-0

>  <TestSubstance_Description>
single chemical compound

>  <STRUCTURE_ChemicalName_IUPAC>
4,4'-(E)-diazene-1,2-diyldianiline

>  <STRUCTURE_SMILES>
NC1=CC=C(C=C1)/N=N/C2=CC=C(C=C2)N

>  <STRUCTURE_Parent_SMILES>
NC1=CC=C(C=C1)/N=N/C2=CC=C(C=C2)N

>  <STRUCTURE_InChI>
InChI=1/C12H12N4/c13-9-1-5-11(6-2-9)15-16-12-7-3-10(14)4-8-12/h1-8H,13-14H2/b16-15+

>  <STRUCTURE_InChIKey>
KQIKKETXZQDHGE-FOCLMDBBBU

>  <StudyType>
Carcinogenicity

>  <Endpoint>
TD50; Tumor Target Sites

>  <Species>
mouse

>  <ActivityScore_CPDBAS_Mouse>
0

>  <TD50_Mouse_Note>
no positive results

>  <TargetSites_Mouse_Male>
no positive results

>  <TargetSites_Mouse_Female>
no positive results

>  <ActivityOutcome_CPDBAS_Mouse>
inactive

>  <ActivityOutcome_CPDBAS_SingleCellCall>
inactive

>  <ActivityOutcome_CPDBAS_MultiCellCall>
inactive

>  <ActivityOutcome_CPDBAS_MultiCellCall_Details>
multisex inactive

>  <ChemicalPage_URL>
http://potency.berkeley.edu/chempages/4,4'-DIAMINOAZOBENZENE.html

$$$$



 17 18  0  0  0  0  0  0  0  0999 V2000
    5.9755   -3.4565    0.0000 O   0  0  0  0  0  0  0  0  0  0  0  0
    5.3203   -2.3044    0.0000 C   0  0  0  0  0  0  0  0  0  0  0  0
    3.9874   -2.3044    0.0000 C   0  0  0  0  0  0  0  0  0  0  0  0
    3.3210   -3.4565    0.0000 C   0  0  0  0  0  0  0  0  0  0  0  0
    1.9881   -3.4565    0.0000 C   0  0  0  0  0  0  0  0  0  0  0  0
    1.3329   -2.3044    0.0000 C   0  0  0  0  0  0  0  0  0  0  0  0
    1.9881   -1.1522    0.0000 C   0  0  0  0  0  0  0  0  0  0  0  0
    3.3210   -1.1522    0.0000 C   0  0  0  0  0  0  0  0  0  0  0  0
    0.0000   -2.3044    0.0000 N   0  0  0  0  0  0  0  0  0  0  0  0
    5.9755   -1.1522    0.0000 N   0  0  0  0  0  0  0  0  0  0  0  0
    7.3084   -1.1522    0.0000 C   0  0  0  0  0  0  0  0  0  0  0  0
    7.9749    0.0000    0.0000 C   0  0  0  0  0  0  0  0  0  0  0  0
    9.3078    0.0000    0.0000 C   0  0  0  0  0  0  0  0  0  0  0  0
    9.9629   -1.1522    0.0000 C   0  0  0  0  0  0  0  0  0  0  0  0
    9.3078   -2.3044    0.0000 C   0  0  0  0  0  0  0  0  0  0  0  0
    7.9749   -2.3044    0.0000 C   0  0  0  0  0  0  0  0  0  0  0  0
   11.2959   -1.1522    0.0000 N   0  0  0  0  0  0  0  0  0  0  0  0
  1  2  2  0  0  0  0
  2  3  1  0  0  0  0
  2 10  1  0  0  0  0
  3  4  2  0  0  0  0
  3  8  1  0  0  0  0
  4  5  1  0  0  0  0
  5  6  2  0  0  0  0
  6  7  1  0  0  0  0
  6  9  1  0  0  0  0
  7  8  2  0  0  0  0
 10 11  1  0  0  0  0
 11 12  2  0  0  0  0
 11 16  1  0  0  0  0
 12 13  1  0  0  0  0
 13 14  2  0  0  0  0
 14 15  1  0  0  0  0
 14 17  1  0  0  0  0
 15 16  2  0  0  0  0
M  END
>  <DSSTox_RID>
20400

>  <DSSTox_CID>
400

>  <DSSTox_Generic_SID>
20400

>  <DSSTox_FileID>
416_CPDBAS_v5d

>  <STRUCTURE_Formula>
C13H13N3O

>  <STRUCTURE_MolecularWeight>
227.2652

>  <STRUCTURE_ChemicalType>
defined organic

>  <STRUCTURE_TestedForm_DefinedOrganic>
parent

>  <STRUCTURE_Shown>
tested chemical

>  <TestSubstance_ChemicalName>
4,4'-Diaminobenzanilide

>  <TestSubstance_CASRN>
785-30-8

>  <TestSubstance_Description>
single chemical compound

>  <STRUCTURE_ChemicalName_IUPAC>
4-amino-N-(4-aminophenyl)benzamide

>  <STRUCTURE_SMILES>
O=C(C1=CC=C(C=C1)N)NC2=CC=C(C=C2)N

>  <STRUCTURE_Parent_SMILES>
O=C(C1=CC=C(C=C1)N)NC2=CC=C(C=C2)N

>  <STRUCTURE_InChI>
InChI=1/C13H13N3O/c14-10-3-1-9(2-4-10)13(17)16-12-7-5-11(15)6-8-12/h1-8H,14-15H2,(H,16,17)/f/h16H

>  <STRUCTURE_InChIKey>
XPAQFJJCWGSXGJ-WYUMXYHSCU

>  <StudyType>
Carcinogenicity

>  <Endpoint>
TD50; Tumor Target Sites

>  <Species>
mouse

>  <ActivityScore_CPDBAS_Mouse>
0

>  <TD50_Mouse_Note>
no positive results

>  <TargetSites_Mouse_Male>
no positive results

>  <TargetSites_Mouse_Female>
no positive results

>  <ActivityOutcome_CPDBAS_Mouse>
inactive

>  <ActivityOutcome_CPDBAS_SingleCellCall>
inactive

>  <ActivityOutcome_CPDBAS_MultiCellCall>
inactive

>  <ActivityOutcome_CPDBAS_MultiCellCall_Details>
multisex inactive

>  <ChemicalPage_URL>
http://potency.berkeley.edu/chempages/4,4'-DIAMINOBENZANILIDE.html

$$$$



  9  9  0  0  0  0  0  0  0  0999 V2000
    0.0000   -2.6589    0.0000 N   0  0  0  0  0  0  0  0  0  0  0  0
    1.1520   -1.9953    0.0000 C   0  0  0  0  0  0  0  0  0  0  0  0
    1.1520   -0.6636    0.0000 C   0  0  0  0  0  0  0  0  0  0  0  0
    2.3041    0.0000    0.0000 C   0  0  0  0  0  0  0  0  0  0  0  0
    3.4561   -0.6636    0.0000 C   0  0  0  0  0  0  0  0  0  0  0  0
    3.4561   -1.9953    0.0000 C   0  0  0  0  0  0  0  0  0  0  0  0
    2.3041   -2.6589    0.0000 C   0  0  0  0  0  0  0  0  0  0  0  0
    4.6082   -2.6589    0.0000 N   0  0  0  0  0  0  0  0  0  0  0  0
    0.0000    0.0000    0.0000 C   0  0  0  0  0  0  0  0  0  0  0  0
  1  2  1  0  0  0  0
  2  3  2  0  0  0  0
  2  7  1  0  0  0  0
  3  4  1  0  0  0  0
  3  9  1  0  0  0  0
  4  5  2  0  0  0  0
  5  6  1  0  0  0  0
  6  7  2  0  0  0  0
  6  8  1  0  0  0  0
M  END
>  <DSSTox_RID>
20402

>  <DSSTox_CID>
402

>  <DSSTox_Generic_SID>
20402

>  <DSSTox_FileID>
418_CPDBAS_v5d

>  <STRUCTURE_Formula>
C7H10N2

>  <STRUCTURE_MolecularWeight>
122.1677

>  <STRUCTURE_ChemicalType>
defined organic

>  <STRUCTURE_TestedForm_DefinedOrganic>
parent

>  <STRUCTURE_Shown>
tested chemical

>  <TestSubstance_ChemicalName>
2,4-Diaminotoluene

>  <TestSubstance_CASRN>
95-80-7

>  <TestSubstance_Description>
single chemical compound

>  <STRUCTURE_ChemicalName_IUPAC>
4-methylbenzene-1,3-diamine

>  <STRUCTURE_SMILES>
NC1=C(C=CC(=C1)N)C

>  <STRUCTURE_Parent_SMILES>
NC1=C(C=CC(=C1)N)C

>  <STRUCTURE_InChI>
InChI=1/C7H10N2/c1-5-2-3-6(8)4-7(5)9/h2-4H,8-9H2,1H3

>  <STRUCTURE_InChIKey>
VOZKAJLKRJDJLL-UHFFFAOYAX

>  <StudyType>
Carcinogenicity

>  <Endpoint>
TD50; Tumor Target Sites

>  <Species>
rat; mouse

>  <ActivityOutcome_CPDBAS_Mutagenicity>
active

>  <TD50_Rat_mg>
2.47

>  <TD50_Rat_mmol>
0.0202

>  <ActivityScore_CPDBAS_Rat>
43

>  <TD50_Rat_Note>
TD50 is harmonic mean of more than one positive test

>  <TargetSites_Rat_Male>
liver

>  <TargetSites_Rat_Female>
liver; mammary gland

>  <ActivityOutcome_CPDBAS_Rat>
active

>  <TD50_Mouse_mg>
26.7

>  <TD50_Mouse_mmol>
0.219

>  <ActivityScore_CPDBAS_Mouse>
36

>  <TargetSites_Mouse_Male>
no positive results

>  <TargetSites_Mouse_Female>
liver

>  <ActivityOutcome_CPDBAS_Mouse>
active

>  <ActivityOutcome_CPDBAS_SingleCellCall>
active

>  <ActivityOutcome_CPDBAS_MultiCellCall>
active

>  <ActivityOutcome_CPDBAS_MultiCellCall_Details>
multisite active; multisex active; multispecies active

>  <NTP_TechnicalReport>
TR 162

>  <ChemicalPage_URL>
http://potency.berkeley.edu/chempages/2,4-DIAMINOTOLUENE.html

$$$$



 20 22  0  0  0  0  0  0  0  0999 V2000
    7.3361   -1.5610    0.0000 C   0  0  0  0  0  0  0  0  0  0  0  0
    6.3979   -2.4993    0.0000 N   0  0  0  0  0  0  0  0  0  0  0  0
    5.1442   -1.9978    0.0000 C   0  0  0  0  0  0  0  0  0  0  0  0
    3.9956   -2.6611    0.0000 C   0  0  0  0  0  0  0  0  0  0  0  0
    2.8390   -1.9978    0.0000 C   0  0  0  0  0  0  0  0  0  0  0  0
    2.8390   -0.6632    0.0000 C   0  0  0  0  0  0  0  0  0  0  0  0
    3.9956    0.0000    0.0000 C   0  0  0  0  0  0  0  0  0  0  0  0
    5.1442   -0.6632    0.0000 C   0  0  0  0  0  0  0  0  0  0  0  0
    1.6905    0.0000    0.0000 Cl  0  0  0  0  0  0  0  0  0  0  0  0
    3.7772   -3.9956    0.0000 C   0  0  0  0  0  0  0  0  0  0  0  0
    4.7155   -4.9339    0.0000 N   0  0  0  0  0  0  0  0  0  0  0  0
    6.0258   -4.8530    0.0000 C   0  0  0  0  0  0  0  0  0  0  0  0
    6.7699   -3.7530    0.0000 C   0  0  0  0  0  0  0  0  0  0  0  0
    8.0883   -3.9552    0.0000 O   0  0  0  0  0  0  0  0  0  0  0  0
    2.5074   -4.3839    0.0000 C   0  0  0  0  0  0  0  0  0  0  0  0
    2.2243   -5.6618    0.0000 C   0  0  0  0  0  0  0  0  0  0  0  0
    0.9382   -6.0743    0.0000 C   0  0  0  0  0  0  0  0  0  0  0  0
    0.0000   -5.1361    0.0000 C   0  0  0  0  0  0  0  0  0  0  0  0
    0.2750   -3.8581    0.0000 C   0  0  0  0  0  0  0  0  0  0  0  0
    1.5691   -3.4456    0.0000 C   0  0  0  0  0  0  0  0  0  0  0  0
  1  2  1  0  0  0  0
  2  3  1  0  0  0  0
  2 13  1  0  0  0  0
  3  4  2  0  0  0  0
  3  8  1  0  0  0  0
  4  5  1  0  0  0  0
  4 10  1  0  0  0  0
  5  6  2  0  0  0  0
  6  7  1  0  0  0  0
  6  9  1  0  0  0  0
  7  8  2  0  0  0  0
 10 11  2  0  0  0  0
 10 15  1  0  0  0  0
 11 12  1  0  0  0  0
 12 13  1  0  0  0  0
 13 14  2  0  0  0  0
 15 16  2  0  0  0  0
 15 20  1  0  0  0  0
 16 17  1  0  0  0  0
 17 18  2  0  0  0  0
 18 19  1  0  0  0  0
 19 20  2  0  0  0  0
M  END
>  <DSSTox_RID>
20406

>  <DSSTox_CID>
406

>  <DSSTox_Generic_SID>
20406

>  <DSSTox_FileID>
422_CPDBAS_v5d

>  <STRUCTURE_Formula>
C16H13ClN2O

>  <STRUCTURE_MolecularWeight>
284.7402

>  <STRUCTURE_ChemicalType>
defined organic

>  <STRUCTURE_TestedForm_DefinedOrganic>
parent

>  <STRUCTURE_Shown>
tested chemical

>  <TestSubstance_ChemicalName>
Diazepam

>  <TestSubstance_CASRN>
439-14-5

>  <TestSubstance_Description>
single chemical compound

>  <STRUCTURE_ChemicalName_IUPAC>
7-chloro-1-methyl-5-phenyl-1,3-dihydro-2H-1,4-benzodiazepin-2-one

>  <STRUCTURE_SMILES>
CN1C2=C(C=C(C=C2)Cl)C(=NCC1=O)C3=CC=CC=C3

>  <STRUCTURE_Parent_SMILES>
CN1C2=C(C=C(C=C2)Cl)C(=NCC1=O)C3=CC=CC=C3

>  <STRUCTURE_InChI>
InChI=1/C16H13ClN2O/c1-19-14-8-7-12(17)9-13(14)16(18-10-15(19)20)11-5-3-2-4-6-11/h2-9H,10H2,1H3

>  <STRUCTURE_InChIKey>
AAOVKJBEBIDNHE-UHFFFAOYAM

>  <StudyType>
Carcinogenicity

>  <Endpoint>
TD50; Tumor Target Sites

>  <Species>
rat; mouse

>  <ActivityOutcome_CPDBAS_Mutagenicity>
inactive

>  <ActivityScore_CPDBAS_Rat>
0

>  <TD50_Rat_Note>
no positive results

>  <TargetSites_Rat_Male>
no positive results

>  <TargetSites_Rat_Female>
no positive results

>  <ActivityOutcome_CPDBAS_Rat>
inactive

>  <ActivityScore_CPDBAS_Mouse>
0

>  <TD50_Mouse_Note>
no positive results

>  <TargetSites_Mouse_Male>
no positive results

>  <TargetSites_Mouse_Female>
no positive results

>  <ActivityOutcome_CPDBAS_Mouse>
inactive

>  <ActivityOutcome_CPDBAS_SingleCellCall>
inactive

>  <ActivityOutcome_CPDBAS_MultiCellCall>
inactive

>  <ActivityOutcome_CPDBAS_MultiCellCall_Details>
multisex inactive; multispecies inactive

>  <ChemicalPage_URL>
http://potency.berkeley.edu/chempages/DIAZEPAM.html

$$$$



 19 19  0  0  0  0  0  0  0  0999 V2000
    4.8313   -4.1140    0.0000 S   0  0  0  0  0  0  0  0  0  0  0  0
    5.9808   -3.4571    0.0000 P   0  0  0  0  0  0  0  0  0  0  0  0
    5.3153   -2.2990    0.0000 O   0  0  0  0  0  0  0  0  0  0  0  0
    3.9930   -2.2990    0.0000 C   0  0  0  0  0  0  0  0  0  0  0  0
    3.3275   -3.4571    0.0000 N   0  0  0  0  0  0  0  0  0  0  0  0
    1.9965   -3.4571    0.0000 C   0  0  0  0  0  0  0  0  0  0  0  0
    1.3310   -2.2990    0.0000 N   0  0  0  0  0  0  0  0  0  0  0  0
    1.9965   -1.1495    0.0000 C   0  0  0  0  0  0  0  0  0  0  0  0
    3.3275   -1.1495    0.0000 C   0  0  0  0  0  0  0  0  0  0  0  0
    1.3310    0.0000    0.0000 C   0  0  0  0  0  0  0  0  0  0  0  0
    1.3310   -4.6066    0.0000 C   0  0  0  0  0  0  0  0  0  0  0  0
    1.9965   -5.7561    0.0000 C   0  0  0  0  0  0  0  0  0  0  0  0
    0.0000   -4.6066    0.0000 C   0  0  0  0  0  0  0  0  0  0  0  0
    7.1389   -2.7916    0.0000 O   0  0  0  0  0  0  0  0  0  0  0  0
    7.1389   -1.4606    0.0000 C   0  0  0  0  0  0  0  0  0  0  0  0
    8.2884   -0.7951    0.0000 C   0  0  0  0  0  0  0  0  0  0  0  0
    6.6463   -4.6066    0.0000 O   0  0  0  0  0  0  0  0  0  0  0  0
    7.9773   -4.6066    0.0000 C   0  0  0  0  0  0  0  0  0  0  0  0
    8.6428   -3.4571    0.0000 C   0  0  0  0  0  0  0  0  0  0  0  0
  1  2  2  0  0  0  0
  2  3  1  0  0  0  0
  2 14  1  0  0  0  0
  2 17  1  0  0  0  0
  3  4  1  0  0  0  0
  4  5  2  0  0  0  0
  4  9  1  0  0  0  0
  5  6  1  0  0  0  0
  6  7  2  0  0  0  0
  6 11  1  0  0  0  0
  7  8  1  0  0  0  0
  8  9  2  0  0  0  0
  8 10  1  0  0  0  0
 11 12  1  0  0  0  0
 11 13  1  0  0  0  0
 14 15  1  0  0  0  0
 15 16  1  0  0  0  0
 17 18  1  0  0  0  0
 18 19  1  0  0  0  0
M  END
>  <DSSTox_RID>
20407

>  <DSSTox_CID>
407

>  <DSSTox_Generic_SID>
20407

>  <DSSTox_FileID>
423_CPDBAS_v5d

>  <STRUCTURE_Formula>
C12H21N2O3PS

>  <STRUCTURE_MolecularWeight>
304.3455

>  <STRUCTURE_ChemicalType>
defined organic

>  <STRUCTURE_TestedForm_DefinedOrganic>
parent

>  <STRUCTURE_Shown>
tested chemical

>  <TestSubstance_ChemicalName>
Diazinon

>  <TestSubstance_CASRN>
333-41-5

>  <TestSubstance_Description>
single chemical compound

>  <STRUCTURE_ChemicalName_IUPAC>
O,O-diethyl O-[6-methyl-2-(1-methylethyl)pyrimidin-4-yl] thiophosphate

>  <STRUCTURE_SMILES>
S=P(OC1=NC(=NC(=C1)C)C(C)C)(OCC)OCC

>  <STRUCTURE_Parent_SMILES>
S=P(OC1=NC(=NC(=C1)C)C(C)C)(OCC)OCC

>  <STRUCTURE_InChI>
InChI=1/C12H21N2O3PS/c1-6-15-18(19,16-7-2)17-11-8-10(5)13-12(14-11)9(3)4/h8-9H,6-7H2,1-5H3

>  <STRUCTURE_InChIKey>
FHIVAFMUCKRCQO-UHFFFAOYAQ

>  <StudyType>
Carcinogenicity

>  <Endpoint>
TD50; Tumor Target Sites

>  <Species>
rat; mouse

>  <ActivityOutcome_CPDBAS_Mutagenicity>
inactive

>  <ActivityScore_CPDBAS_Rat>
0

>  <TD50_Rat_Note>
no positive results

>  <TargetSites_Rat_Male>
no positive results

>  <TargetSites_Rat_Female>
no positive results

>  <ActivityOutcome_CPDBAS_Rat>
inactive

>  <ActivityScore_CPDBAS_Mouse>
0

>  <TD50_Mouse_Note>
no positive results

>  <TargetSites_Mouse_Male>
no positive results

>  <TargetSites_Mouse_Female>
no positive results

>  <ActivityOutcome_CPDBAS_Mouse>
inactive

>  <ActivityOutcome_CPDBAS_SingleCellCall>
inactive

>  <ActivityOutcome_CPDBAS_MultiCellCall>
inactive

>  <ActivityOutcome_CPDBAS_MultiCellCall_Details>
multisex inactive; multispecies inactive

>  <NTP_TechnicalReport>
TR 137

>  <ChemicalPage_URL>
http://potency.berkeley.edu/chempages/DIAZINON.html

$$$$



 22 26  0  0  0  0  0  0  0  0999 V2000
    4.6586   -3.4567    0.0000 C   0  0  0  0  0  0  0  0  0  0  0  0
    5.9881   -3.4567    0.0000 C   0  0  0  0  0  0  0  0  0  0  0  0
    6.6475   -4.6054    0.0000 C   0  0  0  0  0  0  0  0  0  0  0  0
    7.9770   -4.6054    0.0000 C   0  0  0  0  0  0  0  0  0  0  0  0
    8.6471   -3.4567    0.0000 C   0  0  0  0  0  0  0  0  0  0  0  0
    9.9660   -3.4567    0.0000 C   0  0  0  0  0  0  0  0  0  0  0  0
   10.6361   -2.2974    0.0000 C   0  0  0  0  0  0  0  0  0  0  0  0
    9.9660   -1.1487    0.0000 C   0  0  0  0  0  0  0  0  0  0  0  0
    8.6471   -1.1487    0.0000 C   0  0  0  0  0  0  0  0  0  0  0  0
    7.9770   -2.2974    0.0000 C   0  0  0  0  0  0  0  0  0  0  0  0
    6.6475   -2.2974    0.0000 C   0  0  0  0  0  0  0  0  0  0  0  0
    5.9881   -1.1487    0.0000 C   0  0  0  0  0  0  0  0  0  0  0  0
    4.6586   -1.1487    0.0000 C   0  0  0  0  0  0  0  0  0  0  0  0
    3.9885    0.0000    0.0000 C   0  0  0  0  0  0  0  0  0  0  0  0
    2.6590    0.0000    0.0000 C   0  0  0  0  0  0  0  0  0  0  0  0
    1.9889   -1.1487    0.0000 C   0  0  0  0  0  0  0  0  0  0  0  0
    2.6590   -2.2974    0.0000 C   0  0  0  0  0  0  0  0  0  0  0  0
    3.9885   -2.2974    0.0000 C   0  0  0  0  0  0  0  0  0  0  0  0
    1.9889   -3.4567    0.0000 C   0  0  0  0  0  0  0  0  0  0  0  0
    0.6594   -3.4567    0.0000 C   0  0  0  0  0  0  0  0  0  0  0  0
    0.0000   -2.2974    0.0000 C   0  0  0  0  0  0  0  0  0  0  0  0
    0.6594   -1.1487    0.0000 C   0  0  0  0  0  0  0  0  0  0  0  0
  1  2  2  0  0  0  0
  1 18  1  0  0  0  0
  2  3  1  0  0  0  0
  2 11  1  0  0  0  0
  3  4  2  0  0  0  0
  4  5  1  0  0  0  0
  5  6  2  0  0  0  0
  5 10  1  0  0  0  0
  6  7  1  0  0  0  0
  7  8  2  0  0  0  0
  8  9  1  0  0  0  0
  9 10  2  0  0  0  0
 10 11  1  0  0  0  0
 11 12  2  0  0  0  0
 12 13  1  0  0  0  0
 13 14  2  0  0  0  0
 13 18  1  0  0  0  0
 14 15  1  0  0  0  0
 15 16  2  0  0  0  0
 16 17  1  0  0  0  0
 16 22  1  0  0  0  0
 17 18  2  0  0  0  0
 17 19  1  0  0  0  0
 19 20  2  0  0  0  0
 20 21  1  0  0  0  0
 21 22  2  0  0  0  0
M  END
>  <DSSTox_RID>
20409

>  <DSSTox_CID>
409

>  <DSSTox_Generic_SID>
20409

>  <DSSTox_FileID>
425_CPDBAS_v5d

>  <STRUCTURE_Formula>
C22H14

>  <STRUCTURE_MolecularWeight>
278.3466

>  <STRUCTURE_ChemicalType>
defined organic

>  <STRUCTURE_TestedForm_DefinedOrganic>
parent

>  <STRUCTURE_Shown>
tested chemical

>  <TestSubstance_ChemicalName>
Dibenz(a,h)anthracene

>  <TestSubstance_CASRN>
53-70-3

>  <TestSubstance_Description>
single chemical compound

>  <STRUCTURE_ChemicalName_IUPAC>
benzo[k]tetraphene

>  <STRUCTURE_SMILES>
C1=C2C=CC3=CC=CC=C3C2=CC4=CC=C5C(=C14)C=CC=C5

>  <STRUCTURE_Parent_SMILES>
C1=C2C=CC3=CC=CC=C3C2=CC4=CC=C5C(=C14)C=CC=C5

>  <STRUCTURE_InChI>
InChI=1/C22H14/c1-3-7-19-15(5-1)9-11-17-14-22-18(13-21(17)19)12-10-16-6-2-4-8-20(16)22/h1-14H

>  <STRUCTURE_InChIKey>
LHRCREOYAASXPZ-UHFFFAOYAM

>  <StudyType>
Carcinogenicity

>  <Endpoint>
TD50; Tumor Target Sites

>  <Species>
mouse

>  <ActivityOutcome_CPDBAS_Mutagenicity>
active

>  <TD50_Mouse_mg>
5.88

>  <TD50_Mouse_mmol>
0.0211

>  <ActivityScore_CPDBAS_Mouse>
47

>  <TargetSites_Mouse_Male>
lung

>  <ActivityOutcome_CPDBAS_Mouse>
active

>  <ActivityOutcome_CPDBAS_SingleCellCall>
active

>  <ChemicalPage_URL>
http://potency.berkeley.edu/chempages/DIBENZ(a,h)ANTHRACENE.html

$$$$



 14 16  0  0  0  0  0  0  0  0999 V2000
    3.4545    0.0000    0.0000 O   0  0  0  0  0  0  0  0  0  0  0  0
    4.6083   -0.6633    0.0000 C   0  0  0  0  0  0  0  0  0  0  0  0
    4.6083   -1.9967    0.0000 C   0  0  0  0  0  0  0  0  0  0  0  0
    5.7552   -2.6600    0.0000 C   0  0  0  0  0  0  0  0  0  0  0  0
    6.9090   -1.9967    0.0000 C   0  0  0  0  0  0  0  0  0  0  0  0
    6.9090   -0.6633    0.0000 C   0  0  0  0  0  0  0  0  0  0  0  0
    5.7552    0.0000    0.0000 C   0  0  0  0  0  0  0  0  0  0  0  0
    3.4545   -2.6600    0.0000 O   0  0  0  0  0  0  0  0  0  0  0  0
    2.3007   -1.9967    0.0000 C   0  0  0  0  0  0  0  0  0  0  0  0
    1.1538   -2.6600    0.0000 C   0  0  0  0  0  0  0  0  0  0  0  0
    0.0000   -1.9967    0.0000 C   0  0  0  0  0  0  0  0  0  0  0  0
    0.0000   -0.6633    0.0000 C   0  0  0  0  0  0  0  0  0  0  0  0
    1.1538    0.0000    0.0000 C   0  0  0  0  0  0  0  0  0  0  0  0
    2.3007   -0.6633    0.0000 C   0  0  0  0  0  0  0  0  0  0  0  0
  1  2  1  0  0  0  0
  1 14  1  0  0  0  0
  2  3  2  0  0  0  0
  2  7  1  0  0  0  0
  3  4  1  0  0  0  0
  3  8  1  0  0  0  0
  4  5  2  0  0  0  0
  5  6  1  0  0  0  0
  6  7  2  0  0  0  0
  8  9  1  0  0  0  0
  9 10  2  0  0  0  0
  9 14  1  0  0  0  0
 10 11  1  0  0  0  0
 11 12  2  0  0  0  0
 12 13  1  0  0  0  0
 13 14  2  0  0  0  0
M  END
>  <DSSTox_RID>
20410

>  <DSSTox_CID>
410

>  <DSSTox_Generic_SID>
20410

>  <DSSTox_FileID>
426_CPDBAS_v5d

>  <STRUCTURE_Formula>
C12H8O2

>  <STRUCTURE_MolecularWeight>
184.1907

>  <STRUCTURE_ChemicalType>
defined organic

>  <STRUCTURE_TestedForm_DefinedOrganic>
parent

>  <STRUCTURE_Shown>
tested chemical

>  <TestSubstance_ChemicalName>
Dibenzo-p-dioxin

>  <TestSubstance_CASRN>
262-12-4

>  <TestSubstance_Description>
single chemical compound

>  <STRUCTURE_ChemicalName_IUPAC>
oxanthrene

>  <STRUCTURE_SMILES>
O1C2=C(C=CC=C2)OC3=CC=CC=C13

>  <STRUCTURE_Parent_SMILES>
O1C2=C(C=CC=C2)OC3=CC=CC=C13

>  <STRUCTURE_InChI>
InChI=1/C12H8O2/c1-2-6-10-9(5-1)13-11-7-3-4-8-12(11)14-10/h1-8H

>  <STRUCTURE_InChIKey>
NFBOHOGPQUYFRF-UHFFFAOYAJ

>  <StudyType>
Carcinogenicity

>  <Endpoint>
TD50; Tumor Target Sites

>  <Species>
rat; mouse

>  <ActivityOutcome_CPDBAS_Mutagenicity>
inactive

>  <ActivityScore_CPDBAS_Rat>
0

>  <TD50_Rat_Note>
no positive results

>  <TargetSites_Rat_Male>
no positive results

>  <TargetSites_Rat_Female>
no positive results

>  <ActivityOutcome_CPDBAS_Rat>
inactive

>  <ActivityScore_CPDBAS_Mouse>
0

>  <TD50_Mouse_Note>
no positive results

>  <TargetSites_Mouse_Male>
no positive results

>  <TargetSites_Mouse_Female>
no positive results

>  <ActivityOutcome_CPDBAS_Mouse>
inactive

>  <ActivityOutcome_CPDBAS_SingleCellCall>
inactive

>  <ActivityOutcome_CPDBAS_MultiCellCall>
inactive

>  <ActivityOutcome_CPDBAS_MultiCellCall_Details>
multisex inactive; multispecies inactive

>  <NTP_TechnicalReport>
TR 122

>  <ChemicalPage_URL>
http://potency.berkeley.edu/chempages/DIBENZO-p-DIOXIN.html

$$$$



 14 16  0  0  0  0  0  0  0  0999 V2000
    7.6035   -3.0490    0.0000 N   0  0  0  0  0  0  0  0  0  0  0  0
    6.3869   -2.5091    0.0000 C   0  0  0  0  0  0  0  0  0  0  0  0
    6.2500   -1.1861    0.0000 C   0  0  0  0  0  0  0  0  0  0  0  0
    5.0335   -0.6463    0.0000 C   0  0  0  0  0  0  0  0  0  0  0  0
    3.9614   -1.4294    0.0000 C   0  0  0  0  0  0  0  0  0  0  0  0
    2.6612   -1.1557    0.0000 C   0  0  0  0  0  0  0  0  0  0  0  0
    1.9921   -2.3038    0.0000 C   0  0  0  0  0  0  0  0  0  0  0  0
    0.6615   -2.3038    0.0000 C   0  0  0  0  0  0  0  0  0  0  0  0
    0.0000   -1.1557    0.0000 C   0  0  0  0  0  0  0  0  0  0  0  0
    0.6615    0.0000    0.0000 C   0  0  0  0  0  0  0  0  0  0  0  0
    1.9921    0.0000    0.0000 C   0  0  0  0  0  0  0  0  0  0  0  0
    2.8817   -3.2923    0.0000 O   0  0  0  0  0  0  0  0  0  0  0  0
    4.0983   -2.7525    0.0000 C   0  0  0  0  0  0  0  0  0  0  0  0
    5.3148   -3.2923    0.0000 C   0  0  0  0  0  0  0  0  0  0  0  0
  1  2  1  0  0  0  0
  2  3  2  0  0  0  0
  2 14  1  0  0  0  0
  3  4  1  0  0  0  0
  4  5  2  0  0  0  0
  5  6  1  0  0  0  0
  5 13  1  0  0  0  0
  6  7  2  0  0  0  0
  6 11  1  0  0  0  0
  7  8  1  0  0  0  0
  7 12  1  0  0  0  0
  8  9  2  0  0  0  0
  9 10  1  0  0  0  0
 10 11  2  0  0  0  0
 12 13  1  0  0  0  0
 13 14  2  0  0  0  0
M  END
>  <DSSTox_RID>
20411

>  <DSSTox_CID>
411

>  <DSSTox_Generic_SID>
20411

>  <DSSTox_FileID>
427_CPDBAS_v5d

>  <STRUCTURE_Formula>
C12H9NO

>  <STRUCTURE_MolecularWeight>
183.2092

>  <STRUCTURE_ChemicalType>
defined organic

>  <STRUCTURE_TestedForm_DefinedOrganic>
parent

>  <STRUCTURE_Shown>
tested chemical

>  <TestSubstance_ChemicalName>
3-Dibenzofuranamine

>  <TestSubstance_CASRN>
4106-66-5

>  <TestSubstance_Description>
single chemical compound

>  <STRUCTURE_ChemicalName_IUPAC>
dibenzo[b,d]furan-3-amine

>  <STRUCTURE_SMILES>
NC1=CC=C2C3=C(C=CC=C3)OC2=C1

>  <STRUCTURE_Parent_SMILES>
NC1=CC=C2C3=C(C=CC=C3)OC2=C1

>  <STRUCTURE_InChI>
InChI=1/C12H9NO/c13-8-5-6-10-9-3-1-2-4-11(9)14-12(10)7-8/h1-7H,13H2

>  <STRUCTURE_InChIKey>
GHQCIALFYKYZGS-UHFFFAOYAV

>  <StudyType>
Carcinogenicity

>  <Endpoint>
TD50; Tumor Target Sites

>  <Species>
rat

>  <TD50_Rat_mg>
2.48

>  <TD50_Rat_mmol>
0.0135

>  <ActivityScore_CPDBAS_Rat>
45

>  <TargetSites_Rat_Male>
all tumor bearing animals

>  <ActivityOutcome_CPDBAS_Rat>
active

>  <ActivityOutcome_CPDBAS_SingleCellCall>
active

>  <ChemicalPage_URL>
http://potency.berkeley.edu/chempages/3-DIBENZOFURANAMINE.html

$$$$



  6  5  0  0  0  0  0  0  0  0999 V2000
    2.6616    0.0000    0.0000 Br  0  0  0  0  0  0  0  0  0  0  0  0
    1.9952   -1.1492    0.0000 C   0  0  3  0  0  0  0  0  0  0  0  0
    2.6616   -2.3025    0.0000 C   0  0  0  0  0  0  0  0  0  0  0  0
    3.9905   -2.3025    0.0000 Cl  0  0  0  0  0  0  0  0  0  0  0  0
    0.6664   -1.1492    0.0000 C   0  0  0  0  0  0  0  0  0  0  0  0
    0.0000   -2.3025    0.0000 Br  0  0  0  0  0  0  0  0  0  0  0  0
  1  2  1  0  0  0  0
  2  3  1  0  0  0  0
  2  5  1  0  0  0  0
  3  4  1  0  0  0  0
  5  6  1  0  0  0  0
M  END
>  <DSSTox_RID>
20413

>  <DSSTox_CID>
413

>  <DSSTox_Generic_SID>
20413

>  <DSSTox_FileID>
429_CPDBAS_v5d

>  <STRUCTURE_Formula>
C3H5Br2Cl

>  <STRUCTURE_MolecularWeight>
236.3328

>  <STRUCTURE_ChemicalType>
defined organic

>  <STRUCTURE_TestedForm_DefinedOrganic>
parent

>  <STRUCTURE_Shown>
tested chemical

>  <TestSubstance_ChemicalName>
1,2-Dibromo-3-chloropropane

>  <TestSubstance_CASRN>
96-12-8

>  <TestSubstance_Description>
single chemical compound

>  <STRUCTURE_ChemicalName_IUPAC>
1,2-dibromo-3-chloropropane

>  <STRUCTURE_SMILES>
BrC(CCl)CBr

>  <STRUCTURE_Parent_SMILES>
BrC(CCl)CBr

>  <STRUCTURE_InChI>
InChI=1/C3H5Br2Cl/c4-1-3(5)2-6/h3H,1-2H2

>  <STRUCTURE_InChIKey>
WBEJYOJJBDISQU-UHFFFAOYAN

>  <StudyType>
Carcinogenicity

>  <Endpoint>
TD50; Tumor Target Sites

>  <Species>
rat; mouse

>  <ActivityOutcome_CPDBAS_Mutagenicity>
active

>  <TD50_Rat_mg>
0.259

>  <TD50_Rat_mmol>
0.0011

>  <ActivityScore_CPDBAS_Rat>
56

>  <TD50_Rat_Note>
TD50 is harmonic mean of more than one positive test

>  <TargetSites_Rat_Male>
nasal cavity; oral cavity; stomach

>  <TargetSites_Rat_Female>
adrenal gland; mammary gland; nasal cavity; oral cavity; stomach

>  <ActivityOutcome_CPDBAS_Rat>
active

>  <TD50_Mouse_mg>
2.72

>  <TD50_Mouse_mmol>
0.0115

>  <ActivityScore_CPDBAS_Mouse>
50

>  <TD50_Mouse_Note>
TD50 is harmonic mean of more than one positive test

>  <TargetSites_Mouse_Male>
lung; nasal cavity; stomach

>  <TargetSites_Mouse_Female>
lung; nasal cavity; stomach

>  <ActivityOutcome_CPDBAS_Mouse>
active

>  <ActivityOutcome_CPDBAS_SingleCellCall>
active

>  <ActivityOutcome_CPDBAS_MultiCellCall>
active

>  <ActivityOutcome_CPDBAS_MultiCellCall_Details>
multisite active; multisex active; multispecies active

>  <Note_CPDBAS>
TargetSites_Rat modified v3a

>  <NTP_TechnicalReport>
TR 206

>  <ChemicalPage_URL>
http://potency.berkeley.edu/chempages/1,2-DIBROMO-3-CHLOROPROPANE.html

$$$$



 12 11  0  0  1  0  0  0  0  0999 V2000
    1.3263   -2.2908    0.0000 C   0  0  2  0  0  0  0  0  0  0  0  0
    2.0015   -3.4242    0.0000 C   0  0  2  0  0  0  0  0  0  0  0  0
    1.3263   -4.6138    0.0000 C   0  0  2  0  0  0  0  0  0  0  0  0
    2.0015   -5.7472    0.0000 C   0  0  1  0  0  0  0  0  0  0  0  0
    1.3263   -6.9047    0.0000 C   0  0  0  0  0  0  0  0  0  0  0  0
    2.0015   -1.1334    0.0000 C   0  0  0  0  0  0  0  0  0  0  0  0
    3.3277   -3.4242    0.0000 O   0  0  0  0  0  0  0  0  0  0  0  0
    0.0000   -4.6138    0.0000 O   0  0  0  0  0  0  0  0  0  0  0  0
    3.3277   -5.7472    0.0000 O   0  0  0  0  0  0  0  0  0  0  0  0
    2.0015   -8.0380    0.0000 Br  0  0  0  0  0  0  0  0  0  0  0  0
    1.3263    0.0000    0.0000 Br  0  0  0  0  0  0  0  0  0  0  0  0
    0.0000   -2.2908    0.0000 O   0  0  0  0  0  0  0  0  0  0  0  0
  1  2  1  0  0  0  0
  1  6  1  0  0  0  0
  1 12  1  1  0  0  0
  2  3  1  0  0  0  0
  2  7  1  1  0  0  0
  3  4  1  0  0  0  0
  3  8  1  6  0  0  0
  4  5  1  0  0  0  0
  4  9  1  6  0  0  0
  5 10  1  0  0  0  0
  6 11  1  0  0  0  0
M  END
>  <DSSTox_RID>
20414

>  <DSSTox_CID>
414

>  <DSSTox_Generic_SID>
20414

>  <DSSTox_FileID>
430_CPDBAS_v5d

>  <STRUCTURE_Formula>
C6H12Br2O4

>  <STRUCTURE_MolecularWeight>
307.9651

>  <STRUCTURE_ChemicalType>
defined organic

>  <STRUCTURE_TestedForm_DefinedOrganic>
parent

>  <STRUCTURE_Shown>
tested chemical

>  <TestSubstance_ChemicalName>
Dibromodulcitol

>  <TestSubstance_CASRN>
10318-26-0

>  <TestSubstance_Description>
single chemical compound

>  <ChemicalNote>
stereochem

>  <STRUCTURE_ChemicalName_IUPAC>
1,6-dibromo-1,6-dideoxy-D-galactitol

>  <STRUCTURE_SMILES>
O[C@@H]([C@@H](O)[C@H](O)CBr)[C@@H](O)CBr

>  <STRUCTURE_Parent_SMILES>
O[C@@H]([C@@H](O)[C@H](O)CBr)[C@@H](O)CBr

>  <STRUCTURE_InChI>
InChI=1/C6H12Br2O4/c7-1-3(9)5(11)6(12)4(10)2-8/h3-6,9-12H,1-2H2/t3-,4+,5+,6-

>  <STRUCTURE_InChIKey>
VFKZTMPDYBFSTM-GUCUJZIJBG

>  <StudyType>
Carcinogenicity

>  <Endpoint>
TD50; Tumor Target Sites

>  <Species>
rat; mouse

>  <ActivityOutcome_CPDBAS_Mutagenicity>
active

>  <TD50_Rat_mg>
8.37

>  <TD50_Rat_mmol>
0.0272

>  <ActivityScore_CPDBAS_Rat>
42

>  <TD50_Rat_Note>
positive test results only by intraperitoneal or intravenous injection

>  <TargetSites_Rat_Male>
skin

>  <ActivityOutcome_CPDBAS_Rat>
active

>  <TD50_Mouse_mg>
11

>  <TD50_Mouse_mmol>
0.0357

>  <ActivityScore_CPDBAS_Mouse>
45

>  <TD50_Mouse_Note>
positive test results only by intraperitoneal or intravenous injection; TD50 is harmonic mean of more than one positive test

>  <TargetSites_Mouse_Male>
hematopoietic system; lung

>  <TargetSites_Mouse_Female>
hematopoietic system; lung

>  <ActivityOutcome_CPDBAS_Mouse>
active

>  <ActivityOutcome_CPDBAS_SingleCellCall>
active

>  <ActivityOutcome_CPDBAS_MultiCellCall>
active

>  <ActivityOutcome_CPDBAS_MultiCellCall_Details>
multisite active; multisex active; multispecies active

>  <ChemicalPage_URL>
http://potency.berkeley.edu/chempages/DIBROMODULCITOL.html

$$$$



  4  3  0  0  0  0  0  0  0  0999 V2000
    0.0000    0.0000    0.0000 Br  0  0  0  0  0  0  0  0  0  0  0  0
    1.1513   -0.6638    0.0000 C   0  0  0  0  0  0  0  0  0  0  0  0
    2.3061    0.0000    0.0000 C   0  0  0  0  0  0  0  0  0  0  0  0
    3.4575   -0.6638    0.0000 Br  0  0  0  0  0  0  0  0  0  0  0  0
  1  2  1  0  0  0  0
  2  3  1  0  0  0  0
  3  4  1  0  0  0  0
M  END
>  <DSSTox_RID>
20415

>  <DSSTox_CID>
415

>  <DSSTox_Generic_SID>
20415

>  <DSSTox_FileID>
431_CPDBAS_v5d

>  <STRUCTURE_Formula>
C2H4Br2

>  <STRUCTURE_MolecularWeight>
187.8612

>  <STRUCTURE_ChemicalType>
defined organic

>  <STRUCTURE_TestedForm_DefinedOrganic>
parent

>  <STRUCTURE_Shown>
tested chemical

>  <TestSubstance_ChemicalName>
1,2-Dibromoethane

>  <TestSubstance_CASRN>
106-93-4

>  <TestSubstance_Description>
single chemical compound

>  <STRUCTURE_ChemicalName_IUPAC>
1,2-dibromoethane

>  <STRUCTURE_SMILES>
BrCCBr

>  <STRUCTURE_Parent_SMILES>
BrCCBr

>  <STRUCTURE_InChI>
InChI=1/C2H4Br2/c3-1-2-4/h1-2H2

>  <STRUCTURE_InChIKey>
PAAZPARNPHGIKF-UHFFFAOYAZ

>  <StudyType>
Carcinogenicity

>  <Endpoint>
TD50; Tumor Target Sites

>  <Species>
rat; mouse

>  <ActivityOutcome_CPDBAS_Mutagenicity>
active

>  <TD50_Rat_mg>
1.52

>  <TD50_Rat_mmol>
0.00809

>  <ActivityScore_CPDBAS_Rat>
47

>  <TD50_Rat_Note>
TD50 is harmonic mean of more than one positive test

>  <TargetSites_Rat_Male>
nasal cavity; peritoneal cavity; pituitary gland; stomach; vascular system

>  <TargetSites_Rat_Female>
liver; lung; mammary gland; nasal cavity; pituitary gland; stomach; vascular system

>  <ActivityOutcome_CPDBAS_Rat>
active

>  <TD50_Mouse_mg>
7.45

>  <TD50_Mouse_mmol>
0.0397

>  <ActivityScore_CPDBAS_Mouse>
44

>  <TD50_Mouse_Note>
TD50 is harmonic mean of more than one positive test; greater than ten-fold variation among TD50 values for positive results

>  <TargetSites_Mouse_Male>
lung; stomach; vascular system

>  <TargetSites_Mouse_Female>
esophagus; lung; mammary gland; nasal cavity; stomach; subcutaneous tissue; vascular system

>  <ActivityOutcome_CPDBAS_Mouse>
active

>  <ActivityOutcome_CPDBAS_SingleCellCall>
active

>  <ActivityOutcome_CPDBAS_MultiCellCall>
active

>  <ActivityOutcome_CPDBAS_MultiCellCall_Details>
multisite active; multisex active; multispecies active

>  <Note_CPDBAS>
TargetSites_Rat modified v3a

>  <NTP_TechnicalReport>
TR 210; additional results included in CPDB

>  <ChemicalPage_URL>
http://potency.berkeley.edu/chempages/1,2-DIBROMOETHANE.html

$$$$



 12 11  0  0  1  0  0  0  0  0999 V2000
    3.9893   -2.3026    0.0000 O   0  0  0  0  0  0  0  0  0  0  0  0
    2.6595   -2.3026    0.0000 C   0  0  1  0  0  0  0  0  0  0  0  0
    1.9918   -3.4539    0.0000 C   0  0  1  0  0  0  0  0  0  0  0  0
    2.6595   -4.6053    0.0000 C   0  0  2  0  0  0  0  0  0  0  0  0
    3.9893   -4.6053    0.0000 C   0  0  0  0  0  0  0  0  0  0  0  0
    4.6513   -3.4539    0.0000 Br  0  0  0  0  0  0  0  0  0  0  0  0
    1.9918   -5.7566    0.0000 O   0  0  0  0  0  0  0  0  0  0  0  0
    0.6620   -3.4539    0.0000 O   0  0  0  0  0  0  0  0  0  0  0  0
    1.9918   -1.1513    0.0000 C   0  0  2  0  0  0  0  0  0  0  0  0
    0.6620   -1.1513    0.0000 C   0  0  0  0  0  0  0  0  0  0  0  0
    0.0000   -2.3026    0.0000 Br  0  0  0  0  0  0  0  0  0  0  0  0
    2.6595    0.0000    0.0000 O   0  0  0  0  0  0  0  0  0  0  0  0
  2  1  1  1  0  0  0
  2  3  1  0  0  0  0
  2  9  1  0  0  0  0
  3  4  1  0  0  0  0
  3  8  1  1  0  0  0
  4  5  1  0  0  0  0
  4  7  1  6  0  0  0
  5  6  1  0  0  0  0
  9 10  1  0  0  0  0
  9 12  1  6  0  0  0
 10 11  1  0  0  0  0
M  END
>  <DSSTox_RID>
20416

>  <DSSTox_CID>
2918

>  <DSSTox_Generic_SID>
22918

>  <DSSTox_FileID>
432_CPDBAS_v5d

>  <STRUCTURE_Formula>
C6H12Br2O4

>  <STRUCTURE_MolecularWeight>
307.9651

>  <STRUCTURE_ChemicalType>
defined organic

>  <STRUCTURE_TestedForm_DefinedOrganic>
parent

>  <STRUCTURE_Shown>
tested chemical

>  <TestSubstance_ChemicalName>
Dibromomannitol

>  <TestSubstance_CASRN>
488-41-5

>  <TestSubstance_Description>
single chemical compound

>  <ChemicalNote>
stereochem

>  <STRUCTURE_ChemicalName_IUPAC>
1,6-dibromo-1,6-dideoxy-D-mannitol

>  <STRUCTURE_SMILES>
O[C@H]([C@H](O)CBr)[C@H](O)[C@H](O)CBr

>  <STRUCTURE_Parent_SMILES>
O[C@H]([C@H](O)CBr)[C@H](O)[C@H](O)CBr

>  <STRUCTURE_InChI>
InChI=1/C6H12Br2O4/c7-1-3(9)5(11)6(12)4(10)2-8/h3-6,9-12H,1-2H2/t3-,4-,5+,6+/m0/s1

>  <STRUCTURE_InChIKey>
VFKZTMPDYBFSTM-UNTFVMJOBU

>  <StudyType>
Carcinogenicity

>  <Endpoint>
TD50; Tumor Target Sites

>  <Species>
rat; mouse

>  <ActivityOutcome_CPDBAS_Mutagenicity>
active

>  <TD50_Rat_mg>
27.6

>  <TD50_Rat_mmol>
0.0896

>  <ActivityScore_CPDBAS_Rat>
37

>  <TD50_Rat_Note>
positive test results only by intraperitoneal or intravenous injection; TD50 is harmonic mean of more than one positive test

>  <TargetSites_Rat_Male>
peritoneal cavity; skin

>  <TargetSites_Rat_Female>
mammary gland; peritoneal cavity

>  <ActivityOutcome_CPDBAS_Rat>
active

>  <TD50_Mouse_mg>
14.9

>  <TD50_Mouse_mmol>
0.0484

>  <ActivityScore_CPDBAS_Mouse>
43

>  <TD50_Mouse_Note>
positive test results only by intraperitoneal or intravenous injection; TD50 is harmonic mean of more than one positive test

>  <TargetSites_Mouse_Male>
lung

>  <TargetSites_Mouse_Female>
hematopoietic system; lung

>  <ActivityOutcome_CPDBAS_Mouse>
active

>  <ActivityOutcome_CPDBAS_SingleCellCall>
active

>  <ActivityOutcome_CPDBAS_MultiCellCall>
active

>  <ActivityOutcome_CPDBAS_MultiCellCall_Details>
multisite active; multisex active; multispecies active

>  <ChemicalPage_URL>
http://potency.berkeley.edu/chempages/DIBROMOMANNITOL.html

$$$$



 12 13  0  0  0  0  0  0  0  0999 V2000
    2.3036   -1.3283    0.0000 C   0  0  0  0  0  0  0  0  0  0  0  0
    1.1488   -1.9925    0.0000 C   0  0  0  0  0  0  0  0  0  0  0  0
    1.1488   -3.3267    0.0000 C   0  0  0  0  0  0  0  0  0  0  0  0
    2.3036   -3.9909    0.0000 C   0  0  0  0  0  0  0  0  0  0  0  0
    3.4524   -3.3267    0.0000 C   0  0  0  0  0  0  0  0  0  0  0  0
    3.4524   -1.9925    0.0000 C   0  0  0  0  0  0  0  0  0  0  0  0
    4.6072   -3.9909    0.0000 N   0  0  0  0  0  0  0  0  0  0  0  0
    4.6072   -5.3192    0.0000 C   0  0  0  0  0  0  0  0  0  0  0  0
    3.4524   -5.9834    0.0000 C   0  0  0  0  0  0  0  0  0  0  0  0
    2.3036   -5.3192    0.0000 C   0  0  0  0  0  0  0  0  0  0  0  0
    0.0000   -3.9909    0.0000 Br  0  0  0  0  0  0  0  0  0  0  0  0
    2.3036    0.0000    0.0000 Br  0  0  0  0  0  0  0  0  0  0  0  0
  1  2  2  0  0  0  0
  1  6  1  0  0  0  0
  1 12  1  0  0  0  0
  2  3  1  0  0  0  0
  3  4  2  0  0  0  0
  3 11  1  0  0  0  0
  4  5  1  0  0  0  0
  4 10  1  0  0  0  0
  5  6  2  0  0  0  0
  5  7  1  0  0  0  0
  7  8  2  0  0  0  0
  8  9  1  0  0  0  0
  9 10  2  0  0  0  0
M  END
>  <DSSTox_RID>
20417

>  <DSSTox_CID>
417

>  <DSSTox_Generic_SID>
20417

>  <DSSTox_FileID>
433_CPDBAS_v5d

>  <STRUCTURE_Formula>
C9H5Br2N

>  <STRUCTURE_MolecularWeight>
286.9532

>  <STRUCTURE_ChemicalType>
defined organic

>  <STRUCTURE_TestedForm_DefinedOrganic>
parent

>  <STRUCTURE_Shown>
tested chemical

>  <TestSubstance_ChemicalName>
5,7-Dibromoquinoline

>  <TestSubstance_CASRN>
34522-69-5

>  <TestSubstance_Description>
single chemical compound

>  <STRUCTURE_ChemicalName_IUPAC>
5,7-dibromoquinoline

>  <STRUCTURE_SMILES>
C1(=CC(=C2C(=C1)N=CC=C2)Br)Br

>  <STRUCTURE_Parent_SMILES>
C1(=CC(=C2C(=C1)N=CC=C2)Br)Br

>  <STRUCTURE_InChI>
InChI=1/C9H5Br2N/c10-6-4-8(11)7-2-1-3-12-9(7)5-6/h1-5H

>  <STRUCTURE_InChIKey>
VYTOCZMQXCNIPD-UHFFFAOYAU

>  <StudyType>
Carcinogenicity

>  <Endpoint>
TD50; Tumor Target Sites

>  <Species>
rat

>  <ActivityScore_CPDBAS_Rat>
0

>  <TD50_Rat_Note>
no positive results

>  <TargetSites_Rat_Male>
no positive results

>  <TargetSites_Rat_Female>
no positive results

>  <ActivityOutcome_CPDBAS_Rat>
inactive

>  <ActivityOutcome_CPDBAS_SingleCellCall>
inactive

>  <ActivityOutcome_CPDBAS_MultiCellCall>
inactive

>  <ActivityOutcome_CPDBAS_MultiCellCall_Details>
multisex inactive

>  <ChemicalPage_URL>
http://potency.berkeley.edu/chempages/5,7-DIBROMOQUINOLINE.html

$$$$



 14 13  0  0  0  0  0  0  0  0999 V2000
    3.9904   -3.4520    0.0000 O   0  0  0  0  0  0  0  0  0  0  0  0
    2.6563   -3.4520    0.0000 C   0  0  0  0  0  0  0  0  0  0  0  0
    1.9922   -4.6066    0.0000 N   0  0  0  0  0  0  0  0  0  0  0  0
    2.6563   -5.7553    0.0000 C   0  0  0  0  0  0  0  0  0  0  0  0
    3.9904   -5.7553    0.0000 C   0  0  0  0  0  0  0  0  0  0  0  0
    4.6545   -4.6066    0.0000 C   0  0  0  0  0  0  0  0  0  0  0  0
    5.9826   -4.6066    0.0000 C   0  0  0  0  0  0  0  0  0  0  0  0
    0.6641   -4.6066    0.0000 N   0  0  0  0  0  0  0  0  0  0  0  0
    0.0000   -3.4520    0.0000 O   0  0  0  0  0  0  0  0  0  0  0  0
    1.9922   -2.3033    0.0000 N   0  0  0  0  0  0  0  0  0  0  0  0
    2.6563   -1.1487    0.0000 C   0  0  0  0  0  0  0  0  0  0  0  0
    3.9904   -1.1487    0.0000 C   0  0  0  0  0  0  0  0  0  0  0  0
    4.6545    0.0000    0.0000 C   0  0  0  0  0  0  0  0  0  0  0  0
    5.9826    0.0000    0.0000 C   0  0  0  0  0  0  0  0  0  0  0  0
  1  2  2  0  0  0  0
  2  3  1  0  0  0  0
  2 10  1  0  0  0  0
  3  4  1  0  0  0  0
  3  8  1  0  0  0  0
  4  5  1  0  0  0  0
  5  6  1  0  0  0  0
  6  7  1  0  0  0  0
  8  9  2  0  0  0  0
 10 11  1  0  0  0  0
 11 12  1  0  0  0  0
 12 13  1  0  0  0  0
 13 14  1  0  0  0  0
M  END
>  <DSSTox_RID>
20418

>  <DSSTox_CID>
418

>  <DSSTox_Generic_SID>
20418

>  <DSSTox_FileID>
434_CPDBAS_v5d

>  <STRUCTURE_Formula>
C9H19N3O2

>  <STRUCTURE_MolecularWeight>
201.268

>  <STRUCTURE_ChemicalType>
defined organic

>  <STRUCTURE_TestedForm_DefinedOrganic>
parent

>  <STRUCTURE_Shown>
tested chemical

>  <TestSubstance_ChemicalName>
1,3-Dibutyl-1-nitrosourea

>  <TestSubstance_CASRN>
56654-52-5

>  <TestSubstance_Description>
single chemical compound

>  <STRUCTURE_ChemicalName_IUPAC>
1,3-dibutyl-1-nitrosourea

>  <STRUCTURE_SMILES>
O=C(N(CCCC)N=O)NCCCC

>  <STRUCTURE_Parent_SMILES>
O=C(N(CCCC)N=O)NCCCC

>  <STRUCTURE_InChI>
InChI=1/C9H19N3O2/c1-3-5-7-10-9(13)12(11-14)8-6-4-2/h3-8H2,1-2H3,(H,10,13)/f/h10H

>  <STRUCTURE_InChIKey>
OWGLVQAUSIPFBA-KZFATGLACQ

>  <StudyType>
Carcinogenicity

>  <Endpoint>
TD50; Tumor Target Sites

>  <Species>
rat

>  <TD50_Rat_mg>
4.28

>  <TD50_Rat_mmol>
0.0213

>  <ActivityScore_CPDBAS_Rat>
43

>  <TargetSites_Rat_Female>
hematopoietic system; mammary gland

>  <ActivityOutcome_CPDBAS_Rat>
active

>  <ActivityOutcome_CPDBAS_SingleCellCall>
active

>  <ActivityOutcome_CPDBAS_MultiCellCall>
active

>  <ActivityOutcome_CPDBAS_MultiCellCall_Details>
multisite active

>  <ChemicalPage_URL>
http://potency.berkeley.edu/chempages/1,3-DIBUTYL-1-NITROSOUREA.html

$$$$



 16 16  0  0  0  0  0  0  0  0999 V2000
    8.0620   -4.6575    0.0000 C   0  0  0  0  0  0  0  0  0  0  0  0
    6.9162   -3.9980    0.0000 C   0  0  0  0  0  0  0  0  0  0  0  0
    5.7621   -3.3303    0.0000 N   0  0  0  0  0  0  0  0  0  0  0  0
    4.6081   -3.9980    0.0000 C   0  0  0  0  0  0  0  0  0  0  0  0
    4.6081   -5.3252    0.0000 O   0  0  0  0  0  0  0  0  0  0  0  0
    3.4540   -3.3303    0.0000 C   0  0  0  0  0  0  0  0  0  0  0  0
    2.3081   -3.9980    0.0000 C   0  0  0  0  0  0  0  0  0  0  0  0
    1.1541   -3.3303    0.0000 C   0  0  0  0  0  0  0  0  0  0  0  0
    1.1541   -2.0031    0.0000 C   0  0  0  0  0  0  0  0  0  0  0  0
    2.3081   -1.3354    0.0000 C   0  0  0  0  0  0  0  0  0  0  0  0
    3.4540   -2.0031    0.0000 C   0  0  0  0  0  0  0  0  0  0  0  0
    2.3081    0.0000    0.0000 Cl  0  0  0  0  0  0  0  0  0  0  0  0
    0.0000   -3.9980    0.0000 Cl  0  0  0  0  0  0  0  0  0  0  0  0
    7.5757   -2.8440    0.0000 C   0  0  0  0  0  0  0  0  0  0  0  0
    8.2434   -1.6899    0.0000 C   0  0  0  0  0  0  0  0  0  0  0  0
    6.2485   -5.1439    0.0000 C   0  0  0  0  0  0  0  0  0  0  0  0
  1  2  1  0  0  0  0
  2  3  1  0  0  0  0
  2 14  1  0  0  0  0
  2 16  1  0  0  0  0
  3  4  1  0  0  0  0
  4  5  2  0  0  0  0
  4  6  1  0  0  0  0
  6  7  2  0  0  0  0
  6 11  1  0  0  0  0
  7  8  1  0  0  0  0
  8  9  2  0  0  0  0
  8 13  1  0  0  0  0
  9 10  1  0  0  0  0
 10 11  2  0  0  0  0
 10 12  1  0  0  0  0
 14 15  3  0  0  0  0
M  END
>  <DSSTox_RID>
20420

>  <DSSTox_CID>
420

>  <DSSTox_Generic_SID>
20420

>  <DSSTox_FileID>
436_CPDBAS_v5d

>  <STRUCTURE_Formula>
C12H11Cl2NO

>  <STRUCTURE_MolecularWeight>
256.1278

>  <STRUCTURE_ChemicalType>
defined organic

>  <STRUCTURE_TestedForm_DefinedOrganic>
parent

>  <STRUCTURE_Shown>
tested chemical

>  <TestSubstance_ChemicalName>
3,5-Dichloro(N-1,1-dimethyl-2-propynyl)benzamide

>  <TestSubstance_CASRN>
23950-58-5

>  <TestSubstance_Description>
single chemical compound

>  <STRUCTURE_ChemicalName_IUPAC>
3,5-dichloro-N-(1,1-dimethylprop-2-yn-1-yl)benzamide

>  <STRUCTURE_SMILES>
CC(NC(=O)C1=CC(=CC(=C1)Cl)Cl)(C#C)C

>  <STRUCTURE_Parent_SMILES>
CC(NC(=O)C1=CC(=CC(=C1)Cl)Cl)(C#C)C

>  <STRUCTURE_InChI>
InChI=1/C12H11Cl2NO/c1-4-12(2,3)15-11(16)8-5-9(13)7-10(14)6-8/h1,5-7H,2-3H3,(H,15,16)/f/h15H

>  <STRUCTURE_InChIKey>
PHNUZKMIPFFYSO-YAQRNVERCQ

>  <StudyType>
Carcinogenicity

>  <Endpoint>
TD50; Tumor Target Sites

>  <Species>
mouse

>  <TD50_Mouse_mg>
140

>  <TD50_Mouse_mmol>
0.547

>  <ActivityScore_CPDBAS_Mouse>
31

>  <TargetSites_Mouse_Male>
liver

>  <ActivityOutcome_CPDBAS_Mouse>
active

>  <ActivityOutcome_CPDBAS_SingleCellCall>
active

>  <Note_CPDBAS>
TD50_Mouse modified v2a

>  <ChemicalPage_URL>
http://potency.berkeley.edu/chempages/3,5-DICHLORO(N-1,1-DIMETHYL-2-PROPYNYL)BENZAMIDE.html

$$$$



  8  8  0  0  1  0  0  0  0  0999 V2000
    0.0000   -2.3027    0.0000 Cl  0  0  0  0  0  0  0  0  0  0  0  0
    1.3289   -2.3027    0.0000 C   0  0  2  0  0  0  0  0  0  0  0  0
    1.9954   -1.1533    0.0000 C   0  0  2  0  0  0  0  0  0  0  0  0
    3.3243   -1.1533    0.0000 O   0  0  0  0  0  0  0  0  0  0  0  0
    3.9907   -2.3027    0.0000 C   0  0  0  0  0  0  0  0  0  0  0  0
    3.3243   -3.4560    0.0000 C   0  0  0  0  0  0  0  0  0  0  0  0
    1.9954   -3.4560    0.0000 O   0  0  0  0  0  0  0  0  0  0  0  0
    1.3289    0.0000    0.0000 Cl  0  0  0  0  0  0  0  0  0  0  0  0
  2  1  1  6  0  0  0
  2  3  1  0  0  0  0
  2  7  1  0  0  0  0
  3  4  1  0  0  0  0
  3  8  1  1  0  0  0
  4  5  1  0  0  0  0
  5  6  1  0  0  0  0
  6  7  1  0  0  0  0
M  END
>  <DSSTox_RID>
20421

>  <DSSTox_CID>
421

>  <DSSTox_Generic_SID>
20421

>  <DSSTox_FileID>
437_CPDBAS_v5d

>  <STRUCTURE_Formula>
C4H6Cl2O2

>  <STRUCTURE_MolecularWeight>
156.9962

>  <STRUCTURE_ChemicalType>
defined organic

>  <STRUCTURE_TestedForm_DefinedOrganic>
parent

>  <STRUCTURE_Shown>
tested chemical

>  <TestSubstance_ChemicalName>
2,3-Dichloro-p-dioxane

>  <TestSubstance_CASRN>
3883-43-0

>  <TestSubstance_Description>
single chemical compound

>  <ChemicalNote>
stereochem

>  <STRUCTURE_ChemicalName_IUPAC>
(2R,3R)-2,3-dichloro-1,4-dioxane

>  <STRUCTURE_SMILES>
Cl[C@@H]1[C@H](OCCO1)Cl

>  <STRUCTURE_Parent_SMILES>
Cl[C@@H]1[C@H](OCCO1)Cl

>  <STRUCTURE_InChI>
InChI=1/C4H6Cl2O2/c5-3-4(6)8-2-1-7-3/h3-4H,1-2H2/t3-,4-/m0/s1

>  <STRUCTURE_InChIKey>
ZOZUXFQYIYUIND-IMJSIDKUBE

>  <StudyType>
Carcinogenicity

>  <Endpoint>
TD50; Tumor Target Sites

>  <Species>
mouse

>  <ActivityScore_CPDBAS_Mouse>
0

>  <TD50_Mouse_Note>
no positive results

>  <TargetSites_Mouse_Female>
no positive results

>  <ActivityOutcome_CPDBAS_Mouse>
inactive

>  <ActivityOutcome_CPDBAS_SingleCellCall>
inactive

>  <ChemicalPage_URL>
http://potency.berkeley.edu/chempages/2,3-DICHLORO-p-DIOXANE.html

$$$$



  5  4  0  0  0  0  0  0  0  0999 V2000
    0.0000   -1.3300    0.0000 F   0  0  0  0  0  0  0  0  0  0  0  0
    1.3300   -2.6600    0.0000 Cl  0  0  0  0  0  0  0  0  0  0  0  0
    1.3300   -1.3300    0.0000 C   0  0  0  0  0  0  0  0  0  0  0  0
    2.6600   -1.3300    0.0000 C   0  0  0  0  0  0  0  0  0  0  0  0
    1.3300    0.0000    0.0000 Cl  0  0  0  0  0  0  0  0  0  0  0  0
  1  3  1  0  0  0  0
  2  3  1  0  0  0  0
  3  4  1  0  0  0  0
  3  5  1  0  0  0  0
M  END
>  <DSSTox_RID>
20422

>  <DSSTox_CID>
422

>  <DSSTox_Generic_SID>
20422

>  <DSSTox_FileID>
438_CPDBAS_v5d

>  <STRUCTURE_Formula>
C2H3Cl2F

>  <STRUCTURE_MolecularWeight>
116.9496

>  <STRUCTURE_ChemicalType>
defined organic

>  <STRUCTURE_TestedForm_DefinedOrganic>
parent

>  <STRUCTURE_Shown>
tested chemical

>  <TestSubstance_ChemicalName>
1,1-Dichloro-1-fluoroethane

>  <TestSubstance_CASRN>
1717-00-6

>  <TestSubstance_Description>
single chemical compound

>  <STRUCTURE_ChemicalName_IUPAC>
1,1-dichloro-1-fluoroethane

>  <STRUCTURE_SMILES>
CC(Cl)(Cl)F

>  <STRUCTURE_Parent_SMILES>
CC(Cl)(Cl)F

>  <STRUCTURE_InChI>
InChI=1/C2H3Cl2F/c1-2(3,4)5/h1H3

>  <STRUCTURE_InChIKey>
FRCHKSNAZZFGCA-UHFFFAOYAI

>  <StudyType>
Carcinogenicity

>  <Endpoint>
TD50; Tumor Target Sites

>  <Species>
rat

>  <TD50_Rat_mg>
5260

>  <TD50_Rat_mmol>
45

>  <ActivityScore_CPDBAS_Rat>
9

>  <TargetSites_Rat_Male>
testes

>  <TargetSites_Rat_Female>
no positive results

>  <ActivityOutcome_CPDBAS_Rat>
active

>  <ActivityOutcome_CPDBAS_SingleCellCall>
active

>  <Note_CPDBAS>
Rat added v2a

>  <ChemicalPage_URL>
http://potency.berkeley.edu/chempages/1,1-DICHLORO-1-FLUOROETHANE.html

$$$$



  9  8  0  0  0  0  0  0  0  0999 V2000
    3.9897   -2.3035    0.0000 Cl  0  0  0  0  0  0  0  0  0  0  0  0
    2.6582   -2.3035    0.0000 C   0  0  0  0  0  0  0  0  0  0  0  0
    1.9948   -3.4552    0.0000 C   0  0  0  0  0  0  0  0  0  0  0  0
    0.6634   -3.4552    0.0000 C   0  0  0  0  0  0  0  0  0  0  0  0
    0.0000   -2.3035    0.0000 O   0  0  0  0  0  0  0  0  0  0  0  0
    2.6582   -4.6070    0.0000 Cl  0  0  0  0  0  0  0  0  0  0  0  0
    1.9948   -1.1517    0.0000 C   0  0  0  0  0  0  0  0  0  0  0  0
    0.6634   -1.1517    0.0000 O   0  0  0  0  0  0  0  0  0  0  0  0
    2.6582    0.0000    0.0000 O   0  0  0  0  0  0  0  0  0  0  0  0
  1  2  1  0  0  0  0
  2  3  2  0  0  0  0
  2  7  1  0  0  0  0
  3  4  1  0  0  0  0
  3  6  1  0  0  0  0
  4  5  2  0  0  0  0
  7  8  2  0  0  0  0
  7  9  1  0  0  0  0
M  END
>  <DSSTox_RID>
20423

>  <DSSTox_CID>
423

>  <DSSTox_Generic_SID>
20423

>  <DSSTox_FileID>
439_CPDBAS_v5d

>  <STRUCTURE_Formula>
C4H2Cl2O3

>  <STRUCTURE_MolecularWeight>
168.9629

>  <STRUCTURE_ChemicalType>
defined organic

>  <STRUCTURE_TestedForm_DefinedOrganic>
parent

>  <STRUCTURE_Shown>
tested chemical

>  <TestSubstance_ChemicalName>
alpha,beta-Dichloro-beta-formylacrylic acid

>  <TestSubstance_CASRN>
87-56-9

>  <TestSubstance_Description>
single chemical compound

>  <ChemicalNote>
stereochem

>  <STRUCTURE_ChemicalName_IUPAC>
(2Z)-2,3-dichloro-4-oxobut-2-enoic acid

>  <STRUCTURE_SMILES>
O=CC(\Cl)=C(\Cl)C(O)=O

>  <STRUCTURE_Parent_SMILES>
O=CC(\Cl)=C(\Cl)C(O)=O

>  <STRUCTURE_InChI>
InChI=1/C4H2Cl2O3/c5-2(1-7)3(6)4(8)9/h1H,(H,8,9)/b3-2-/f/h8H

>  <STRUCTURE_InChIKey>
LUMLZKVIXLWTCI-ZHJZXZFFDN

>  <StudyType>
Carcinogenicity

>  <Endpoint>
TD50; Tumor Target Sites

>  <Species>
mouse

>  <ActivityOutcome_CPDBAS_Mutagenicity>
active

>  <ActivityScore_CPDBAS_Mouse>
0

>  <TD50_Mouse_Note>
no positive results

>  <TargetSites_Mouse_Male>
no positive results

>  <TargetSites_Mouse_Female>
no positive results

>  <ActivityOutcome_CPDBAS_Mouse>
inactive

>  <ActivityOutcome_CPDBAS_SingleCellCall>
inactive

>  <ActivityOutcome_CPDBAS_MultiCellCall>
inactive

>  <ActivityOutcome_CPDBAS_MultiCellCall_Details>
multisex inactive

>  <ChemicalPage_URL>
http://potency.berkeley.edu/chempages/alpha,beta-DICHLORO-beta-FORMYLACRYLIC%20ACID.html

$$$$



 14 14  0  0  0  0  0  0  0  0999 V2000
    1.1541   -1.9972    0.0000 C   0  0  0  0  0  0  0  0  0  0  0  0
    1.1541   -0.6634    0.0000 C   0  0  0  0  0  0  0  0  0  0  0  0
    2.3012    0.0000    0.0000 C   0  0  0  0  0  0  0  0  0  0  0  0
    3.4553   -0.6634    0.0000 C   0  0  0  0  0  0  0  0  0  0  0  0
    3.4553   -1.9972    0.0000 C   0  0  0  0  0  0  0  0  0  0  0  0
    2.3012   -2.6606    0.0000 C   0  0  0  0  0  0  0  0  0  0  0  0
    4.6093   -2.6606    0.0000 N   0  0  0  0  0  0  0  0  0  0  0  0
    5.7565   -1.9972    0.0000 C   0  0  0  0  0  0  0  0  0  0  0  0
    5.7565   -0.6634    0.0000 C   0  0  0  0  0  0  0  0  0  0  0  0
    6.9106    0.0000    0.0000 C   0  0  0  0  0  0  0  0  0  0  0  0
    4.6093    0.0000    0.0000 C   0  0  0  0  0  0  0  0  0  0  0  0
    6.9106   -2.6606    0.0000 O   0  0  0  0  0  0  0  0  0  0  0  0
    0.0000    0.0000    0.0000 Cl  0  0  0  0  0  0  0  0  0  0  0  0
    0.0000   -2.6606    0.0000 Cl  0  0  0  0  0  0  0  0  0  0  0  0
  1  2  1  0  0  0  0
  1  6  2  0  0  0  0
  1 14  1  0  0  0  0
  2  3  2  0  0  0  0
  2 13  1  0  0  0  0
  3  4  1  0  0  0  0
  4  5  2  0  0  0  0
  5  6  1  0  0  0  0
  5  7  1  0  0  0  0
  7  8  1  0  0  0  0
  8  9  1  0  0  0  0
  8 12  2  0  0  0  0
  9 10  1  0  0  0  0
  9 11  2  0  0  0  0
M  END
>  <DSSTox_RID>
20424

>  <DSSTox_CID>
424

>  <DSSTox_Generic_SID>
20424

>  <DSSTox_FileID>
440_CPDBAS_v5d

>  <STRUCTURE_Formula>
C10H9Cl2NO

>  <STRUCTURE_MolecularWeight>
230.0932

>  <STRUCTURE_ChemicalType>
defined organic

>  <STRUCTURE_TestedForm_DefinedOrganic>
parent

>  <STRUCTURE_Shown>
tested chemical

>  <TestSubstance_ChemicalName>
3,4'-Dichloro-2-methylacrylanilide

>  <TestSubstance_CASRN>
2164-09-2

>  <TestSubstance_Description>
single chemical compound

>  <STRUCTURE_ChemicalName_IUPAC>
N-(3,4-dichlorophenyl)-2-methylprop-2-enamide

>  <STRUCTURE_SMILES>
C1(C(=CC=C(C=1)NC(C(C)=C)=O)Cl)Cl

>  <STRUCTURE_Parent_SMILES>
C1(C(=CC=C(C=1)NC(C(C)=C)=O)Cl)Cl

>  <STRUCTURE_InChI>
InChI=1/C10H9Cl2NO/c1-6(2)10(14)13-7-3-4-8(11)9(12)5-7/h3-5H,1H2,2H3,(H,13,14)/f/h13H

>  <STRUCTURE_InChIKey>
VCBRBUKGTWLJOB-NDKGDYFDCC

>  <StudyType>
Carcinogenicity

>  <Endpoint>
TD50; Tumor Target Sites

>  <Species>
mouse

>  <ActivityScore_CPDBAS_Mouse>
0

>  <TD50_Mouse_Note>
no positive results

>  <TargetSites_Mouse_Male>
no positive results

>  <TargetSites_Mouse_Female>
no positive results

>  <ActivityOutcome_CPDBAS_Mouse>
inactive

>  <ActivityOutcome_CPDBAS_SingleCellCall>
inactive

>  <ActivityOutcome_CPDBAS_MultiCellCall>
inactive

>  <ActivityOutcome_CPDBAS_MultiCellCall_Details>
multisex inactive

>  <ChemicalPage_URL>
http://potency.berkeley.edu/chempages/3,4'-DICHLORO-2-METHYLACRYLANILIDE.html

$$$$



 14 15  0  0  0  0  0  0  0  0999 V2000
    0.0000   -3.9911    0.0000 O   0  0  0  0  0  0  0  0  0  0  0  0
    1.1489   -3.3269    0.0000 C   0  0  0  0  0  0  0  0  0  0  0  0
    2.3037   -3.9911    0.0000 C   0  0  0  0  0  0  0  0  0  0  0  0
    3.4526   -3.3269    0.0000 C   0  0  0  0  0  0  0  0  0  0  0  0
    4.6074   -3.9911    0.0000 C   0  0  0  0  0  0  0  0  0  0  0  0
    4.6074   -5.3194    0.0000 C   0  0  0  0  0  0  0  0  0  0  0  0
    3.4526   -5.9836    0.0000 C   0  0  0  0  0  0  0  0  0  0  0  0
    2.3037   -5.3194    0.0000 C   0  0  0  0  0  0  0  0  0  0  0  0
    3.4526   -1.9925    0.0000 C   0  0  0  0  0  0  0  0  0  0  0  0
    4.6074   -1.3284    0.0000 O   0  0  0  0  0  0  0  0  0  0  0  0
    2.3037   -1.3284    0.0000 C   0  0  0  0  0  0  0  0  0  0  0  0
    1.1489   -1.9925    0.0000 C   0  0  0  0  0  0  0  0  0  0  0  0
    0.0000   -1.3284    0.0000 Cl  0  0  0  0  0  0  0  0  0  0  0  0
    2.3037    0.0000    0.0000 Cl  0  0  0  0  0  0  0  0  0  0  0  0
  1  2  2  0  0  0  0
  2  3  1  0  0  0  0
  2 12  1  0  0  0  0
  3  4  2  0  0  0  0
  3  8  1  0  0  0  0
  4  5  1  0  0  0  0
  4  9  1  0  0  0  0
  5  6  2  0  0  0  0
  6  7  1  0  0  0  0
  7  8  2  0  0  0  0
  9 10  2  0  0  0  0
  9 11  1  0  0  0  0
 11 12  2  0  0  0  0
 11 14  1  0  0  0  0
 12 13  1  0  0  0  0
M  END
>  <DSSTox_RID>
20425

>  <DSSTox_CID>
425

>  <DSSTox_Generic_SID>
20425

>  <DSSTox_FileID>
441_CPDBAS_v5d

>  <STRUCTURE_Formula>
C10H4Cl2O2

>  <STRUCTURE_MolecularWeight>
227.0436

>  <STRUCTURE_ChemicalType>
defined organic

>  <STRUCTURE_TestedForm_DefinedOrganic>
parent

>  <STRUCTURE_Shown>
tested chemical

>  <TestSubstance_ChemicalName>
2,3-Dichloro-1,4-naphthoquinone

>  <TestSubstance_CASRN>
117-80-6

>  <TestSubstance_Description>
single chemical compound

>  <STRUCTURE_ChemicalName_IUPAC>
2,3-dichloronaphthalene-1,4-dione

>  <STRUCTURE_SMILES>
O=C1C2=C(C=CC=C2)C(=O)C(=C1Cl)Cl

>  <STRUCTURE_Parent_SMILES>
O=C1C2=C(C=CC=C2)C(=O)C(=C1Cl)Cl

>  <STRUCTURE_InChI>
InChI=1/C10H4Cl2O2/c11-7-8(12)10(14)6-4-2-1-3-5(6)9(7)13/h1-4H

>  <STRUCTURE_InChIKey>
SVPKNMBRVBMTLB-UHFFFAOYAD

>  <StudyType>
Carcinogenicity

>  <Endpoint>
TD50; Tumor Target Sites

>  <Species>
mouse

>  <ActivityScore_CPDBAS_Mouse>
0

>  <TD50_Mouse_Note>
no positive results

>  <TargetSites_Mouse_Male>
no positive results

>  <TargetSites_Mouse_Female>
no positive results

>  <ActivityOutcome_CPDBAS_Mouse>
inactive

>  <ActivityOutcome_CPDBAS_SingleCellCall>
inactive

>  <ActivityOutcome_CPDBAS_MultiCellCall>
inactive

>  <ActivityOutcome_CPDBAS_MultiCellCall_Details>
multisex inactive

>  <ChemicalPage_URL>
http://potency.berkeley.edu/chempages/2,3-DICHLORO-1,4-NAPHTHOQUINONE.html

$$$$



 12 12  0  0  0  0  0  0  0  0999 V2000
    5.9827   -1.1547    0.0000 O   0  0  0  0  0  0  0  0  0  0  0  0
    5.3186   -2.3033    0.0000 N   0  3  0  0  0  0  0  0  0  0  0  0
    3.9905   -2.3033    0.0000 C   0  0  0  0  0  0  0  0  0  0  0  0
    3.3264   -3.4580    0.0000 C   0  0  0  0  0  0  0  0  0  0  0  0
    1.9922   -3.4580    0.0000 C   0  0  0  0  0  0  0  0  0  0  0  0
    1.3282   -2.3033    0.0000 C   0  0  0  0  0  0  0  0  0  0  0  0
    1.9922   -1.1547    0.0000 C   0  0  0  0  0  0  0  0  0  0  0  0
    3.3264   -1.1547    0.0000 C   0  0  0  0  0  0  0  0  0  0  0  0
    1.3282    0.0000    0.0000 Cl  0  0  0  0  0  0  0  0  0  0  0  0
    0.0000   -2.3033    0.0000 N   0  0  0  0  0  0  0  0  0  0  0  0
    1.3282   -4.6067    0.0000 Cl  0  0  0  0  0  0  0  0  0  0  0  0
    5.9827   -3.4580    0.0000 O   0  5  0  0  0  0  0  0  0  0  0  0
  1  2  2  0  0  0  0
  2  3  1  0  0  0  0
  2 12  1  0  0  0  0
  3  4  2  0  0  0  0
  3  8  1  0  0  0  0
  4  5  1  0  0  0  0
  5  6  2  0  0  0  0
  5 11  1  0  0  0  0
  6  7  1  0  0  0  0
  6 10  1  0  0  0  0
  7  8  2  0  0  0  0
  7  9  1  0  0  0  0
M  END
>  <DSSTox_RID>
20426

>  <DSSTox_CID>
426

>  <DSSTox_Generic_SID>
20426

>  <DSSTox_FileID>
442_CPDBAS_v5d

>  <STRUCTURE_Formula>
C6H4Cl2N2O2

>  <STRUCTURE_MolecularWeight>
207.0142

>  <STRUCTURE_ChemicalType>
defined organic

>  <STRUCTURE_TestedForm_DefinedOrganic>
parent

>  <STRUCTURE_Shown>
tested chemical

>  <TestSubstance_ChemicalName>
2,6-Dichloro-4-nitroaniline

>  <TestSubstance_CASRN>
99-30-9

>  <TestSubstance_Description>
single chemical compound

>  <STRUCTURE_ChemicalName_IUPAC>
2,6-dichloro-4-nitroaniline

>  <STRUCTURE_SMILES>
O=[N+](C1=CC(=C(C(=C1)Cl)N)Cl)[O-]

>  <STRUCTURE_Parent_SMILES>
O=[N+](C1=CC(=C(C(=C1)Cl)N)Cl)[O-]

>  <STRUCTURE_InChI>
InChI=1/C6H4Cl2N2O2/c7-4-1-3(10(11)12)2-5(8)6(4)9/h1-2H,9H2

>  <STRUCTURE_InChIKey>
BIXZHMJUSMUDOQ-UHFFFAOYAH

>  <StudyType>
Carcinogenicity

>  <Endpoint>
TD50; Tumor Target Sites

>  <Species>
mouse

>  <ActivityOutcome_CPDBAS_Mutagenicity>
active

>  <ActivityScore_CPDBAS_Mouse>
0

>  <TD50_Mouse_Note>
no positive results

>  <TargetSites_Mouse_Male>
no positive results

>  <TargetSites_Mouse_Female>
no positive results

>  <ActivityOutcome_CPDBAS_Mouse>
inactive

>  <ActivityOutcome_CPDBAS_SingleCellCall>
inactive

>  <ActivityOutcome_CPDBAS_MultiCellCall>
inactive

>  <ActivityOutcome_CPDBAS_MultiCellCall_Details>
multisex inactive

>  <ChemicalPage_URL>
http://potency.berkeley.edu/chempages/2,6-DICHLORO-4-NITROANILINE.html

$$$$



 10 10  0  0  0  0  0  0  0  0999 V2000
    5.3182   -2.3028    0.0000 N   0  0  0  0  0  0  0  0  0  0  0  0
    3.9887   -2.3028    0.0000 C   0  0  0  0  0  0  0  0  0  0  0  0
    3.3239   -3.4568    0.0000 C   0  0  0  0  0  0  0  0  0  0  0  0
    1.9943   -3.4568    0.0000 C   0  0  0  0  0  0  0  0  0  0  0  0
    1.3296   -2.3028    0.0000 C   0  0  0  0  0  0  0  0  0  0  0  0
    1.9943   -1.1487    0.0000 C   0  0  0  0  0  0  0  0  0  0  0  0
    3.3239   -1.1487    0.0000 C   0  0  0  0  0  0  0  0  0  0  0  0
    3.9887    0.0000    0.0000 Cl  0  0  0  0  0  0  0  0  0  0  0  0
    0.0000   -2.3028    0.0000 N   0  0  0  0  0  0  0  0  0  0  0  0
    3.9887   -4.6056    0.0000 Cl  0  0  0  0  0  0  0  0  0  0  0  0
  1  2  1  0  0  0  0
  2  3  2  0  0  0  0
  2  7  1  0  0  0  0
  3  4  1  0  0  0  0
  3 10  1  0  0  0  0
  4  5  2  0  0  0  0
  5  6  1  0  0  0  0
  5  9  1  0  0  0  0
  6  7  2  0  0  0  0
  7  8  1  0  0  0  0
M  END
>  <DSSTox_RID>
20427

>  <DSSTox_CID>
427

>  <DSSTox_Generic_SID>
20427

>  <DSSTox_FileID>
443_CPDBAS_v5d

>  <STRUCTURE_Formula>
C6H6Cl2N2

>  <STRUCTURE_MolecularWeight>
177.0312

>  <STRUCTURE_ChemicalType>
defined organic

>  <STRUCTURE_TestedForm_DefinedOrganic>
parent

>  <STRUCTURE_Shown>
tested chemical

>  <TestSubstance_ChemicalName>
2,6-Dichloro-p-phenylenediamine

>  <TestSubstance_CASRN>
609-20-1

>  <TestSubstance_Description>
single chemical compound

>  <STRUCTURE_ChemicalName_IUPAC>
2,6-dichlorobenzene-1,4-diamine

>  <STRUCTURE_SMILES>
NC1=C(C=C(C=C1Cl)N)Cl

>  <STRUCTURE_Parent_SMILES>
NC1=C(C=C(C=C1Cl)N)Cl

>  <STRUCTURE_InChI>
InChI=1/C6H6Cl2N2/c7-4-1-3(9)2-5(8)6(4)10/h1-2H,9-10H2

>  <STRUCTURE_InChIKey>
HQCHAOKWWKLXQH-UHFFFAOYAM

>  <StudyType>
Carcinogenicity

>  <Endpoint>
TD50; Tumor Target Sites

>  <Species>
rat; mouse

>  <ActivityOutcome_CPDBAS_Mutagenicity>
active

>  <ActivityScore_CPDBAS_Rat>
0

>  <TD50_Rat_Note>
no positive results

>  <TargetSites_Rat_Male>
no positive results

>  <TargetSites_Rat_Female>
no positive results

>  <ActivityOutcome_CPDBAS_Rat>
inactive

>  <TD50_Mouse_mg>
803

>  <TD50_Mouse_mmol>
4.54

>  <ActivityScore_CPDBAS_Mouse>
21

>  <TD50_Mouse_Note>
TD50 is harmonic mean of more than one positive test

>  <TargetSites_Mouse_Male>
liver

>  <TargetSites_Mouse_Female>
liver

>  <ActivityOutcome_CPDBAS_Mouse>
active

>  <ActivityOutcome_CPDBAS_SingleCellCall>
active

>  <ActivityOutcome_CPDBAS_MultiCellCall>
active

>  <ActivityOutcome_CPDBAS_MultiCellCall_Details>
multisex active

>  <NTP_TechnicalReport>
TR 219

>  <ChemicalPage_URL>
http://potency.berkeley.edu/chempages/2,6-DICHLORO-p-PHENYLENEDIAMINE.html

$$$$



  6  5  0  0  0  0  0  0  0  0999 V2000
    3.3250   -1.1509    0.0000 O   0  0  0  0  0  0  0  0  0  0  0  0
    1.9943   -1.1509    0.0000 C   0  0  0  0  0  0  0  0  0  0  0  0
    1.3307    0.0000    0.0000 O   0  0  0  0  0  0  0  0  0  0  0  0
    1.3307   -2.3053    0.0000 C   0  0  0  0  0  0  0  0  0  0  0  0
    1.9943   -3.4563    0.0000 Cl  0  0  0  0  0  0  0  0  0  0  0  0
    0.0000   -2.3053    0.0000 Cl  0  0  0  0  0  0  0  0  0  0  0  0
  1  2  1  0  0  0  0
  2  3  2  0  0  0  0
  2  4  1  0  0  0  0
  4  5  1  0  0  0  0
  4  6  1  0  0  0  0
M  END
>  <DSSTox_RID>
20428

>  <DSSTox_CID>
428

>  <DSSTox_Generic_SID>
20428

>  <DSSTox_FileID>
444_CPDBAS_v5d

>  <STRUCTURE_Formula>
C2H2Cl2O2

>  <STRUCTURE_MolecularWeight>
128.9421

>  <STRUCTURE_ChemicalType>
defined organic

>  <STRUCTURE_TestedForm_DefinedOrganic>
parent

>  <STRUCTURE_Shown>
tested chemical

>  <TestSubstance_ChemicalName>
Dichloroacetic acid

>  <TestSubstance_CASRN>
79-43-6

>  <TestSubstance_Description>
single chemical compound

>  <STRUCTURE_ChemicalName_IUPAC>
dichloroacetic acid

>  <STRUCTURE_SMILES>
OC(=O)C(Cl)Cl

>  <STRUCTURE_Parent_SMILES>
OC(=O)C(Cl)Cl

>  <STRUCTURE_InChI>
InChI=1/C2H2Cl2O2/c3-1(4)2(5)6/h1H,(H,5,6)/f/h5H

>  <STRUCTURE_InChIKey>
JXTHNDFMNIQAHM-JSWHHWTPCR

>  <StudyType>
Carcinogenicity

>  <Endpoint>
TD50; Tumor Target Sites

>  <Species>
rat; mouse

>  <ActivityOutcome_CPDBAS_Mutagenicity>
active

>  <TD50_Rat_mg>
161

>  <TD50_Rat_mmol>
1.25

>  <ActivityScore_CPDBAS_Rat>
25

>  <TD50_Rat_Note>
TD50 is harmonic mean of more than one positive test

>  <TargetSites_Rat_Male>
liver

>  <ActivityOutcome_CPDBAS_Rat>
active

>  <TD50_Mouse_mg>
119

>  <TD50_Mouse_mmol>
0.923

>  <ActivityScore_CPDBAS_Mouse>
29

>  <TD50_Mouse_Note>
TD50 is harmonic mean of more than one positive test

>  <TargetSites_Mouse_Male>
liver

>  <TargetSites_Mouse_Female>
liver

>  <ActivityOutcome_CPDBAS_Mouse>
active

>  <ActivityOutcome_CPDBAS_SingleCellCall>
active

>  <ActivityOutcome_CPDBAS_MultiCellCall>
active

>  <ActivityOutcome_CPDBAS_MultiCellCall_Details>
multisex active; multispecies active

>  <Note_CPDBAS>
TD50_Rat modified v2a; TD50_Mouse modified v2a; TumorSites_Rat_Male modified v2a; TumorSites_Mouse_Male modified v2a; TumorSites_Mouse_Female modified v2a; TD50_Mouse modified v3a

>  <ChemicalPage_URL>
http://potency.berkeley.edu/chempages/DICHLOROACETIC%20ACID.html

$$$$



  4  3  0  0  0  0  0  0  0  0999 V2000
    3.9900    0.0000    0.0000 Cl  0  0  0  0  0  0  0  0  0  0  0  0
    2.6613    0.0000    0.0000 C   0  0  0  0  0  0  0  0  0  0  0  0
    1.3287    0.0000    0.0000 C   0  0  0  0  0  0  0  0  0  0  0  0
    0.0000    0.0000    0.0000 Cl  0  0  0  0  0  0  0  0  0  0  0  0
  1  2  1  0  0  0  0
  2  3  3  0  0  0  0
  3  4  1  0  0  0  0
M  END
>  <DSSTox_RID>
20429

>  <DSSTox_CID>
429

>  <DSSTox_Generic_SID>
20429

>  <DSSTox_FileID>
445_CPDBAS_v5d

>  <STRUCTURE_Formula>
C2Cl2

>  <STRUCTURE_MolecularWeight>
94.928

>  <STRUCTURE_ChemicalType>
defined organic

>  <STRUCTURE_TestedForm_DefinedOrganic>
parent

>  <STRUCTURE_Shown>
tested chemical

>  <TestSubstance_ChemicalName>
Dichloroacetylene

>  <TestSubstance_CASRN>
7572-29-4

>  <TestSubstance_Description>
single chemical compound

>  <STRUCTURE_ChemicalName_IUPAC>
dichloroethyne

>  <STRUCTURE_SMILES>
ClC#CCl

>  <STRUCTURE_Parent_SMILES>
ClC#CCl

>  <STRUCTURE_InChI>
InChI=1/C2Cl2/c3-1-2-4

>  <STRUCTURE_InChIKey>
ZMJOVJSTYLQINE-UHFFFAOYAO

>  <StudyType>
Carcinogenicity

>  <Endpoint>
TD50; Tumor Target Sites

>  <Species>
rat; mouse

>  <TD50_Rat_mg>
3.58

>  <TD50_Rat_mmol>
0.0377

>  <ActivityScore_CPDBAS_Rat>
40

>  <TD50_Rat_Note>
TD50 is harmonic mean of more than one positive test

>  <TargetSites_Rat_Male>
kidney; liver

>  <TargetSites_Rat_Female>
hematopoietic system; kidney; liver

>  <ActivityOutcome_CPDBAS_Rat>
active

>  <TD50_Mouse_mg>
0.574

>  <TD50_Mouse_mmol>
0.00605

>  <ActivityScore_CPDBAS_Mouse>
53

>  <TD50_Mouse_Note>
TD50 is harmonic mean of more than one positive test

>  <TargetSites_Mouse_Male>
harderian gland; kidney

>  <TargetSites_Mouse_Female>
harderian gland; kidney

>  <ActivityOutcome_CPDBAS_Mouse>
active

>  <ActivityOutcome_CPDBAS_SingleCellCall>
active

>  <ActivityOutcome_CPDBAS_MultiCellCall>
active

>  <ActivityOutcome_CPDBAS_MultiCellCall_Details>
multisite active; multisex active; multispecies active

>  <ChemicalPage_URL>
http://potency.berkeley.edu/chempages/DICHLOROACETYLENE.html

$$$$



  8  8  0  0  0  0  0  0  0  0999 V2000
    0.0000   -2.3027    0.0000 Cl  0  0  0  0  0  0  0  0  0  0  0  0
    1.3289   -2.3027    0.0000 C   0  0  0  0  0  0  0  0  0  0  0  0
    1.9954   -1.1533    0.0000 C   0  0  0  0  0  0  0  0  0  0  0  0
    3.3243   -1.1533    0.0000 C   0  0  0  0  0  0  0  0  0  0  0  0
    3.9907   -2.3027    0.0000 C   0  0  0  0  0  0  0  0  0  0  0  0
    3.3243   -3.4560    0.0000 C   0  0  0  0  0  0  0  0  0  0  0  0
    1.9954   -3.4560    0.0000 C   0  0  0  0  0  0  0  0  0  0  0  0
    1.3289    0.0000    0.0000 Cl  0  0  0  0  0  0  0  0  0  0  0  0
  1  2  1  0  0  0  0
  2  3  2  0  0  0  0
  2  7  1  0  0  0  0
  3  4  1  0  0  0  0
  3  8  1  0  0  0  0
  4  5  2  0  0  0  0
  5  6  1  0  0  0  0
  6  7  2  0  0  0  0
M  END
>  <DSSTox_RID>
20430

>  <DSSTox_CID>
430

>  <DSSTox_Generic_SID>
20430

>  <DSSTox_FileID>
446_CPDBAS_v5d

>  <STRUCTURE_Formula>
C6H4Cl2

>  <STRUCTURE_MolecularWeight>
147.002

>  <STRUCTURE_ChemicalType>
defined organic

>  <STRUCTURE_TestedForm_DefinedOrganic>
parent

>  <STRUCTURE_Shown>
tested chemical

>  <TestSubstance_ChemicalName>
1,2-Dichlorobenzene

>  <TestSubstance_CASRN>
95-50-1

>  <TestSubstance_Description>
single chemical compound

>  <STRUCTURE_ChemicalName_IUPAC>
1,2-dichlorobenzene

>  <STRUCTURE_SMILES>
ClC1=C(C=CC=C1)Cl

>  <STRUCTURE_Parent_SMILES>
ClC1=C(C=CC=C1)Cl

>  <STRUCTURE_InChI>
InChI=1/C6H4Cl2/c7-5-3-1-2-4-6(5)8/h1-4H

>  <STRUCTURE_InChIKey>
RFFLAFLAYFXFSW-UHFFFAOYAE

>  <StudyType>
Carcinogenicity

>  <Endpoint>
TD50; Tumor Target Sites

>  <Species>
rat; mouse

>  <ActivityOutcome_CPDBAS_Mutagenicity>
inactive

>  <ActivityScore_CPDBAS_Rat>
0

>  <TD50_Rat_Note>
no positive results

>  <TargetSites_Rat_Male>
no positive results

>  <TargetSites_Rat_Female>
no positive results

>  <ActivityOutcome_CPDBAS_Rat>
inactive

>  <ActivityScore_CPDBAS_Mouse>
0

>  <TD50_Mouse_Note>
no positive results

>  <TargetSites_Mouse_Male>
no positive results

>  <TargetSites_Mouse_Female>
no positive results

>  <ActivityOutcome_CPDBAS_Mouse>
inactive

>  <ActivityOutcome_CPDBAS_SingleCellCall>
inactive

>  <ActivityOutcome_CPDBAS_MultiCellCall>
inactive

>  <ActivityOutcome_CPDBAS_MultiCellCall_Details>
multisex inactive; multispecies inactive

>  <NTP_TechnicalReport>
TR 255

>  <ChemicalPage_URL>
http://potency.berkeley.edu/chempages/1,2-DICHLOROBENZENE.html

$$$$



  8  8  0  0  0  0  0  0  0  0999 V2000
    0.0000   -1.1545    0.0000 Cl  0  0  0  0  0  0  0  0  0  0  0  0
    1.3300   -1.1545    0.0000 C   0  0  0  0  0  0  0  0  0  0  0  0
    1.9950    0.0000    0.0000 C   0  0  0  0  0  0  0  0  0  0  0  0
    3.3250    0.0000    0.0000 C   0  0  0  0  0  0  0  0  0  0  0  0
    3.9900   -1.1545    0.0000 C   0  0  0  0  0  0  0  0  0  0  0  0
    3.3250   -2.3036    0.0000 C   0  0  0  0  0  0  0  0  0  0  0  0
    1.9950   -2.3036    0.0000 C   0  0  0  0  0  0  0  0  0  0  0  0
    5.3201   -1.1545    0.0000 Cl  0  0  0  0  0  0  0  0  0  0  0  0
  1  2  1  0  0  0  0
  2  3  2  0  0  0  0
  2  7  1  0  0  0  0
  3  4  1  0  0  0  0
  4  5  2  0  0  0  0
  5  6  1  0  0  0  0
  5  8  1  0  0  0  0
  6  7  2  0  0  0  0
M  END
>  <DSSTox_RID>
20431

>  <DSSTox_CID>
431

>  <DSSTox_Generic_SID>
20431

>  <DSSTox_FileID>
447_CPDBAS_v5d

>  <STRUCTURE_Formula>
C6H4Cl2

>  <STRUCTURE_MolecularWeight>
147.002

>  <STRUCTURE_ChemicalType>
defined organic

>  <STRUCTURE_TestedForm_DefinedOrganic>
parent

>  <STRUCTURE_Shown>
tested chemical

>  <TestSubstance_ChemicalName>
1,4-Dichlorobenzene

>  <TestSubstance_CASRN>
106-46-7

>  <TestSubstance_Description>
single chemical compound

>  <STRUCTURE_ChemicalName_IUPAC>
1,4-dichlorobenzene

>  <STRUCTURE_SMILES>
ClC1=CC=C(C=C1)Cl

>  <STRUCTURE_Parent_SMILES>
ClC1=CC=C(C=C1)Cl

>  <STRUCTURE_InChI>
InChI=1/C6H4Cl2/c7-5-1-2-6(8)4-3-5/h1-4H

>  <STRUCTURE_InChIKey>
OCJBOOLMMGQPQU-UHFFFAOYAL

>  <StudyType>
Carcinogenicity

>  <Endpoint>
TD50; Tumor Target Sites

>  <Species>
rat; mouse

>  <ActivityOutcome_CPDBAS_Mutagenicity>
inactive

>  <TD50_Rat_mg>
644

>  <TD50_Rat_mmol>
4.38

>  <ActivityScore_CPDBAS_Rat>
19

>  <TargetSites_Rat_Male>
kidney

>  <TargetSites_Rat_Female>
no positive results

>  <ActivityOutcome_CPDBAS_Rat>
active

>  <TD50_Mouse_mg>
323

>  <TD50_Mouse_mmol>
2.2

>  <ActivityScore_CPDBAS_Mouse>
24

>  <TD50_Mouse_Note>
TD50 is harmonic mean of more than one positive test

>  <TargetSites_Mouse_Male>
hematopoietic system; liver

>  <TargetSites_Mouse_Female>
liver

>  <ActivityOutcome_CPDBAS_Mouse>
active

>  <ActivityOutcome_CPDBAS_SingleCellCall>
active

>  <ActivityOutcome_CPDBAS_MultiCellCall>
active

>  <ActivityOutcome_CPDBAS_MultiCellCall_Details>
multisite active; multisex active; multispecies active

>  <Note_CPDBAS>
TD50_Mouse modified v5a; TargetSites_Mouse_Male modified v5a

>  <NTP_TechnicalReport>
TR 319

>  <ChemicalPage_URL>
http://potency.berkeley.edu/chempages/1,4-DICHLOROBENZENE.html

$$$$



 16 17  0  0  0  0  0  0  0  0999 V2000
    7.9825    0.0000    0.0000 Cl  0  0  0  0  0  0  0  0  0  0  0  0
    7.3211   -1.1550    0.0000 C   0  0  0  0  0  0  0  0  0  0  0  0
    7.9825   -2.3100    0.0000 C   0  0  0  0  0  0  0  0  0  0  0  0
    7.3211   -3.4557    0.0000 C   0  0  0  0  0  0  0  0  0  0  0  0
    5.9892   -3.4557    0.0000 C   0  0  0  0  0  0  0  0  0  0  0  0
    5.3185   -2.3100    0.0000 C   0  0  0  0  0  0  0  0  0  0  0  0
    5.9892   -1.1550    0.0000 C   0  0  0  0  0  0  0  0  0  0  0  0
    3.9959   -2.3100    0.0000 C   0  0  0  0  0  0  0  0  0  0  0  0
    3.3253   -3.4557    0.0000 C   0  0  0  0  0  0  0  0  0  0  0  0
    1.9933   -3.4557    0.0000 C   0  0  0  0  0  0  0  0  0  0  0  0
    1.3320   -2.3100    0.0000 C   0  0  0  0  0  0  0  0  0  0  0  0
    1.9933   -1.1550    0.0000 C   0  0  0  0  0  0  0  0  0  0  0  0
    3.3253   -1.1550    0.0000 C   0  0  0  0  0  0  0  0  0  0  0  0
    0.0000   -2.3100    0.0000 N   0  0  0  0  0  0  0  0  0  0  0  0
    1.3320   -4.6106    0.0000 Cl  0  0  0  0  0  0  0  0  0  0  0  0
    9.3144   -2.3100    0.0000 N   0  0  0  0  0  0  0  0  0  0  0  0
  1  2  1  0  0  0  0
  2  3  2  0  0  0  0
  2  7  1  0  0  0  0
  3  4  1  0  0  0  0
  3 16  1  0  0  0  0
  4  5  2  0  0  0  0
  5  6  1  0  0  0  0
  6  7  2  0  0  0  0
  6  8  1  0  0  0  0
  8  9  2  0  0  0  0
  8 13  1  0  0  0  0
  9 10  1  0  0  0  0
 10 11  2  0  0  0  0
 10 15  1  0  0  0  0
 11 12  1  0  0  0  0
 11 14  1  0  0  0  0
 12 13  2  0  0  0  0
M  END
>  <DSSTox_RID>
20432

>  <DSSTox_CID>
432

>  <DSSTox_Generic_SID>
20432

>  <DSSTox_FileID>
448_CPDBAS_v5d

>  <STRUCTURE_Formula>
C12H10Cl2N2

>  <STRUCTURE_MolecularWeight>
253.1304

>  <STRUCTURE_ChemicalType>
defined organic

>  <STRUCTURE_TestedForm_DefinedOrganic>
parent

>  <STRUCTURE_Shown>
tested chemical

>  <TestSubstance_ChemicalName>
3,3'-Dichlorobenzidine

>  <TestSubstance_CASRN>
91-94-1

>  <TestSubstance_Description>
single chemical compound

>  <STRUCTURE_ChemicalName_IUPAC>
3,3'-dichlorobiphenyl-4,4'-diamine

>  <STRUCTURE_SMILES>
ClC1=C(C=CC(=C1)C2=CC(=C(C=C2)N)Cl)N

>  <STRUCTURE_Parent_SMILES>
ClC1=C(C=CC(=C1)C2=CC(=C(C=C2)N)Cl)N

>  <STRUCTURE_InChI>
InChI=1/C12H10Cl2N2/c13-9-5-7(1-3-11(9)15)8-2-4-12(16)10(14)6-8/h1-6H,15-16H2

>  <STRUCTURE_InChIKey>
HUWXDEQWWKGHRV-UHFFFAOYAF

>  <StudyType>
Carcinogenicity

>  <Endpoint>
TD50; Tumor Target Sites

>  <Species>
rat; dog

>  <ActivityOutcome_CPDBAS_Mutagenicity>
active

>  <TD50_Rat_mg>
28.1

>  <TD50_Rat_mmol>
0.111

>  <ActivityScore_CPDBAS_Rat>
36

>  <TD50_Rat_Note>
TD50 is harmonic mean of more than one positive test

>  <TargetSites_Rat_Male>
ear Zymbals gland; hematopoietic system; mammary gland

>  <TargetSites_Rat_Female>
mammary gland

>  <ActivityOutcome_CPDBAS_Rat>
active

>  <TD50_Dog_mg>
1.78

>  <TargetSites_Dog>
liver; urinary bladder

>  <TD50_Dog_Primates_Note>
TD50 value is overestimated as upper 99% confidence limit from study with 100% tumor incidence but no lifetable; harmonic mean of TD50 includes a value for upper 99% confidence limit from study with 100% tumor incidence but no lifetable for Dog

>  <ActivityOutcome_CPDBAS_Dog_Primates>
active

>  <ActivityOutcome_CPDBAS_SingleCellCall>
active

>  <ActivityOutcome_CPDBAS_MultiCellCall>
active

>  <ActivityOutcome_CPDBAS_MultiCellCall_Details>
multisite active; multisex active; multispecies active

>  <Note_CPDBAS>
TD50_Dog Note added v5a

>  <ChemicalPage_URL>
http://potency.berkeley.edu/chempages/3,3'-DICHLOROBENZIDINE.html

$$$$



  6  5  0  0  0  0  0  0  0  0999 V2000
    0.0000   -0.6630    0.0000 Cl  0  0  0  0  0  0  0  0  0  0  0  0
    1.1530    0.0000    0.0000 C   0  0  0  0  0  0  0  0  0  0  0  0
    2.3060   -0.6630    0.0000 C   0  0  0  0  0  0  0  0  0  0  0  0
    3.4590    0.0000    0.0000 C   0  0  0  0  0  0  0  0  0  0  0  0
    4.6119   -0.6630    0.0000 C   0  0  0  0  0  0  0  0  0  0  0  0
    5.7649    0.0000    0.0000 Cl  0  0  0  0  0  0  0  0  0  0  0  0
  1  2  1  0  0  0  0
  2  3  1  0  0  0  0
  3  4  2  0  0  0  0
  4  5  1  0  0  0  0
  5  6  1  0  0  0  0
M  END
>  <DSSTox_RID>
20434

>  <DSSTox_CID>
434

>  <DSSTox_Generic_SID>
20434

>  <DSSTox_FileID>
451_CPDBAS_v5d

>  <STRUCTURE_Formula>
C4H6Cl2

>  <STRUCTURE_MolecularWeight>
124.9964

>  <STRUCTURE_ChemicalType>
defined organic

>  <STRUCTURE_TestedForm_DefinedOrganic>
parent

>  <STRUCTURE_Shown>
tested chemical

>  <TestSubstance_ChemicalName>
trans-1,4-Dichlorobutene-2

>  <TestSubstance_CASRN>
110-57-6

>  <TestSubstance_Description>
single chemical compound

>  <ChemicalNote>
stereochem

>  <STRUCTURE_ChemicalName_IUPAC>
(2E)-1,4-dichlorobut-2-ene

>  <STRUCTURE_SMILES>
ClC/C=C/CCl

>  <STRUCTURE_Parent_SMILES>
ClC/C=C/CCl

>  <STRUCTURE_InChI>
InChI=1/C4H6Cl2/c5-3-1-2-4-6/h1-2H,3-4H2/b2-1+

>  <STRUCTURE_InChIKey>
FQDIANVAWVHZIR-OWOJBTEDBY

>  <StudyType>
Carcinogenicity

>  <Endpoint>
TD50; Tumor Target Sites

>  <Species>
mouse

>  <ActivityOutcome_CPDBAS_Mutagenicity>
active

>  <TD50_Mouse_mg>
1.52

>  <TD50_Mouse_mmol>
0.0122

>  <ActivityScore_CPDBAS_Mouse>
50

>  <TD50_Mouse_Note>
positive test results only by intraperitoneal or intravenous injection

>  <TargetSites_Mouse_Female>
peritoneal cavity

>  <ActivityOutcome_CPDBAS_Mouse>
active

>  <ActivityOutcome_CPDBAS_SingleCellCall>
active

>  <Note_CPDBAS>
Mutagenicity_SAL_CPDB added v3a

>  <ChemicalPage_URL>
http://potency.berkeley.edu/chempages/trans-1,4-DICHLOROBUTENE-2.html

$$$$



 16 18  0  0  0  0  0  0  0  0999 V2000
    9.2093   -2.6615    0.0000 Cl  0  0  0  0  0  0  0  0  0  0  0  0
    8.0581   -1.9984    0.0000 C   0  0  0  0  0  0  0  0  0  0  0  0
    6.9070   -2.6615    0.0000 C   0  0  0  0  0  0  0  0  0  0  0  0
    5.7558   -1.9984    0.0000 C   0  0  0  0  0  0  0  0  0  0  0  0
    5.7558   -0.6631    0.0000 C   0  0  0  0  0  0  0  0  0  0  0  0
    6.9070    0.0000    0.0000 C   0  0  0  0  0  0  0  0  0  0  0  0
    8.0581   -0.6631    0.0000 C   0  0  0  0  0  0  0  0  0  0  0  0
    4.6047    0.0000    0.0000 O   0  0  0  0  0  0  0  0  0  0  0  0
    3.4535   -0.6631    0.0000 C   0  0  0  0  0  0  0  0  0  0  0  0
    3.4535   -1.9984    0.0000 C   0  0  0  0  0  0  0  0  0  0  0  0
    2.3023   -2.6615    0.0000 C   0  0  0  0  0  0  0  0  0  0  0  0
    1.1512   -1.9984    0.0000 C   0  0  0  0  0  0  0  0  0  0  0  0
    1.1512   -0.6631    0.0000 C   0  0  0  0  0  0  0  0  0  0  0  0
    2.3023    0.0000    0.0000 C   0  0  0  0  0  0  0  0  0  0  0  0
    0.0000    0.0000    0.0000 Cl  0  0  0  0  0  0  0  0  0  0  0  0
    4.6047   -2.6615    0.0000 O   0  0  0  0  0  0  0  0  0  0  0  0
  1  2  1  0  0  0  0
  2  3  2  0  0  0  0
  2  7  1  0  0  0  0
  3  4  1  0  0  0  0
  4  5  2  0  0  0  0
  4 16  1  0  0  0  0
  5  6  1  0  0  0  0
  5  8  1  0  0  0  0
  6  7  2  0  0  0  0
  8  9  1  0  0  0  0
  9 10  2  0  0  0  0
  9 14  1  0  0  0  0
 10 11  1  0  0  0  0
 10 16  1  0  0  0  0
 11 12  2  0  0  0  0
 12 13  1  0  0  0  0
 13 14  2  0  0  0  0
 13 15  1  0  0  0  0
M  END
>  <DSSTox_RID>
20435

>  <DSSTox_CID>
435

>  <DSSTox_Generic_SID>
20435

>  <DSSTox_FileID>
452_CPDBAS_v5d

>  <STRUCTURE_Formula>
C12H6Cl2O2

>  <STRUCTURE_MolecularWeight>
253.0808

>  <STRUCTURE_ChemicalType>
defined organic

>  <STRUCTURE_TestedForm_DefinedOrganic>
parent

>  <STRUCTURE_Shown>
tested chemical

>  <TestSubstance_ChemicalName>
2,7-Dichlorodibenzo-p-dioxin

>  <TestSubstance_CASRN>
33857-26-0

>  <TestSubstance_Description>
single chemical compound

>  <STRUCTURE_ChemicalName_IUPAC>
2,7-dichlorooxanthrene

>  <STRUCTURE_SMILES>
ClC1=CC2=C(C=C1)OC3=C(C=CC(=C3)Cl)O2

>  <STRUCTURE_Parent_SMILES>
ClC1=CC2=C(C=C1)OC3=C(C=CC(=C3)Cl)O2

>  <STRUCTURE_InChI>
InChI=1/C12H6Cl2O2/c13-7-1-3-9-11(5-7)16-10-4-2-8(14)6-12(10)15-9/h1-6H

>  <STRUCTURE_InChIKey>
NBFMTHWVRBOVPE-UHFFFAOYAF

>  <StudyType>
Carcinogenicity

>  <Endpoint>
TD50; Tumor Target Sites

>  <Species>
rat; mouse

>  <ActivityOutcome_CPDBAS_Mutagenicity>
inactive

>  <ActivityScore_CPDBAS_Rat>
0

>  <TD50_Rat_Note>
no positive results

>  <TargetSites_Rat_Male>
no positive results

>  <TargetSites_Rat_Female>
no positive results

>  <ActivityOutcome_CPDBAS_Rat>
inactive

>  <ActivityScore_CPDBAS_Mouse>
0

>  <TD50_Mouse_Note>
no positive results

>  <TargetSites_Mouse_Male>
no positive results

>  <TargetSites_Mouse_Female>
no positive results

>  <ActivityOutcome_CPDBAS_Mouse>
inactive

>  <ActivityOutcome_CPDBAS_SingleCellCall>
inactive

>  <ActivityOutcome_CPDBAS_MultiCellCall>
inactive

>  <ActivityOutcome_CPDBAS_MultiCellCall_Details>
multisex inactive; multispecies inactive

>  <NTP_TechnicalReport>
TR 123

>  <ChemicalPage_URL>
http://potency.berkeley.edu/chempages/2,7-DICHLORODIBENZO-p-DIOXIN.html

$$$$



  5  4  0  0  0  0  0  0  0  0999 V2000
    1.3300   -2.6600    0.0000 F   0  0  0  0  0  0  0  0  0  0  0  0
    1.3300   -1.3300    0.0000 C   0  0  0  0  0  0  0  0  0  0  0  0
    0.0000   -1.3300    0.0000 F   0  0  0  0  0  0  0  0  0  0  0  0
    1.3300    0.0000    0.0000 Cl  0  0  0  0  0  0  0  0  0  0  0  0
    2.6600   -1.3300    0.0000 Cl  0  0  0  0  0  0  0  0  0  0  0  0
  1  2  1  0  0  0  0
  2  3  1  0  0  0  0
  2  4  1  0  0  0  0
  2  5  1  0  0  0  0
M  END
>  <DSSTox_RID>
20436

>  <DSSTox_CID>
436

>  <DSSTox_Generic_SID>
20436

>  <DSSTox_FileID>
453_CPDBAS_v5d

>  <STRUCTURE_Formula>
CCl2F2

>  <STRUCTURE_MolecularWeight>
120.9135

>  <STRUCTURE_ChemicalType>
defined organic

>  <STRUCTURE_TestedForm_DefinedOrganic>
parent

>  <STRUCTURE_Shown>
tested chemical

>  <TestSubstance_ChemicalName>
Dichlorodifluoromethane

>  <TestSubstance_CASRN>
75-71-8

>  <TestSubstance_Description>
single chemical compound

>  <STRUCTURE_ChemicalName_IUPAC>
dichloro(difluoro)methane

>  <STRUCTURE_SMILES>
FC(F)(Cl)Cl

>  <STRUCTURE_Parent_SMILES>
FC(F)(Cl)Cl

>  <STRUCTURE_InChI>
InChI=1/CCl2F2/c2-1(3,4)5

>  <STRUCTURE_InChIKey>
PXBRQCKWGAHEHS-UHFFFAOYAX

>  <StudyType>
Carcinogenicity

>  <Endpoint>
TD50; Tumor Target Sites

>  <Species>
rat; mouse

>  <ActivityScore_CPDBAS_Rat>
0

>  <TD50_Rat_Note>
no positive results

>  <TargetSites_Rat_Male>
no positive results

>  <TargetSites_Rat_Female>
no positive results

>  <ActivityOutcome_CPDBAS_Rat>
inactive

>  <ActivityScore_CPDBAS_Mouse>
0

>  <TD50_Mouse_Note>
no positive results

>  <TargetSites_Mouse_Male>
no positive results

>  <TargetSites_Mouse_Female>
no positive results

>  <ActivityOutcome_CPDBAS_Mouse>
inactive

>  <ActivityOutcome_CPDBAS_SingleCellCall>
inactive

>  <ActivityOutcome_CPDBAS_MultiCellCall>
inactive

>  <ActivityOutcome_CPDBAS_MultiCellCall_Details>
multisex inactive; multispecies inactive

>  <ChemicalPage_URL>
http://potency.berkeley.edu/chempages/DICHLORODIFLUOROMETHANE.html

$$$$



 17 18  0  0  0  0  0  0  0  0999 V2000
    4.6090   -1.1486    0.0000 S   0  0  0  0  0  0  0  0  0  0  0  0
    5.7576   -0.4798    0.0000 O   0  0  0  0  0  0  0  0  0  0  0  0
    3.9474    0.0000    0.0000 O   0  0  0  0  0  0  0  0  0  0  0  0
    5.2778   -2.3045    0.0000 C   0  0  0  0  0  0  0  0  0  0  0  0
    6.6081   -2.3045    0.0000 C   0  0  0  0  0  0  0  0  0  0  0  0
    7.2697   -3.4458    0.0000 C   0  0  0  0  0  0  0  0  0  0  0  0
    6.6081   -4.6017    0.0000 C   0  0  0  0  0  0  0  0  0  0  0  0
    7.2697   -5.7576    0.0000 Cl  0  0  0  0  0  0  0  0  0  0  0  0
    5.2778   -4.6017    0.0000 C   0  0  0  0  0  0  0  0  0  0  0  0
    4.6090   -3.4458    0.0000 C   0  0  0  0  0  0  0  0  0  0  0  0
    3.4531   -1.8101    0.0000 C   0  0  0  0  0  0  0  0  0  0  0  0
    3.4531   -3.1405    0.0000 C   0  0  0  0  0  0  0  0  0  0  0  0
    2.3118   -3.8166    0.0000 C   0  0  0  0  0  0  0  0  0  0  0  0
    1.1559   -3.1405    0.0000 C   0  0  0  0  0  0  0  0  0  0  0  0
    0.0000   -3.8166    0.0000 Cl  0  0  0  0  0  0  0  0  0  0  0  0
    1.1559   -1.8101    0.0000 C   0  0  0  0  0  0  0  0  0  0  0  0
    2.3118   -1.1486    0.0000 C   0  0  0  0  0  0  0  0  0  0  0  0
  1  2  2  0  0  0  0
  1  3  2  0  0  0  0
  1  4  1  0  0  0  0
  1 11  1  0  0  0  0
  4  5  1  0  0  0  0
  4 10  2  0  0  0  0
  5  6  2  0  0  0  0
  6  7  1  0  0  0  0
  7  8  1  0  0  0  0
  7  9  2  0  0  0  0
  9 10  1  0  0  0  0
 11 12  1  0  0  0  0
 11 17  2  0  0  0  0
 12 13  2  0  0  0  0
 13 14  1  0  0  0  0
 14 15  1  0  0  0  0
 14 16  2  0  0  0  0
 16 17  1  0  0  0  0
M  END
>  <DSSTox_RID>
40787

>  <DSSTox_CID>
4986

>  <DSSTox_Generic_SID>
24986

>  <DSSTox_FileID>
454_CPDBAS_v5d

>  <STRUCTURE_Formula>
C12H8Cl2O2S

>  <STRUCTURE_MolecularWeight>
287.1617

>  <STRUCTURE_ChemicalType>
defined organic

>  <STRUCTURE_TestedForm_DefinedOrganic>
parent

>  <STRUCTURE_Shown>
tested chemical

>  <TestSubstance_ChemicalName>
p,p'-Dichlorodiphenyl sulfone

>  <TestSubstance_CASRN>
80-07-9

>  <TestSubstance_Description>
single chemical compound

>  <STRUCTURE_ChemicalName_IUPAC>
1,1'-sulfonylbis(4-chlorobenzene)

>  <STRUCTURE_SMILES>
S(=O)(=O)(c1ccc(Cl)cc1)c2ccc(Cl)cc2

>  <STRUCTURE_Parent_SMILES>
S(=O)(=O)(c1ccc(Cl)cc1)c2ccc(Cl)cc2

>  <STRUCTURE_InChI>
InChI=1/C12H8Cl2O2S/c13-9-1-5-11(6-2-9)17(15,16)12-7-3-10(14)4-8-12/h1-8H

>  <STRUCTURE_InChIKey>
GPAPPPVRLPGFEQ-UHFFFAOYAQ

>  <StudyType>
Carcinogenicity

>  <Endpoint>
TD50; Tumor Target Sites

>  <Species>
rat; mouse

>  <ActivityOutcome_CPDBAS_Mutagenicity>
inactive

>  <ActivityScore_CPDBAS_Rat>
0

>  <TD50_Rat_Note>
no positive results

>  <TargetSites_Rat_Male>
no positive results

>  <TargetSites_Rat_Female>
no positive results

>  <ActivityOutcome_CPDBAS_Rat>
inactive

>  <ActivityScore_CPDBAS_Mouse>
0

>  <TD50_Mouse_Note>
no positive results

>  <TargetSites_Mouse_Male>
no positive results

>  <TargetSites_Mouse_Female>
no positive results

>  <ActivityOutcome_CPDBAS_Mouse>
inactive

>  <ActivityOutcome_CPDBAS_SingleCellCall>
inactive

>  <ActivityOutcome_CPDBAS_MultiCellCall>
inactive

>  <ActivityOutcome_CPDBAS_MultiCellCall_Details>
multisex inactive; multispecies inactive

>  <Note_CPDBAS>
Rat added v5a; Mouse added v5a; Mutagenicity_SAL_CPDB added v5a; chemical added v5a

>  <NTP_TechnicalReport>
TR 501

>  <ChemicalPage_URL>
http://potency.berkeley.edu/chempages/p%2Cp'-DICHLORODIPHENYL%20SULFONE.html

$$$$



  4  3  0  0  0  0  0  0  0  0999 V2000
    1.9950    0.0000    0.0000 C   0  0  0  0  0  0  0  0  0  0  0  0
    1.3292   -1.1518    0.0000 C   0  0  0  0  0  0  0  0  0  0  0  0
    1.9950   -2.3037    0.0000 Cl  0  0  0  0  0  0  0  0  0  0  0  0
    0.0000   -1.1518    0.0000 Cl  0  0  0  0  0  0  0  0  0  0  0  0
  1  2  1  0  0  0  0
  2  3  1  0  0  0  0
  2  4  1  0  0  0  0
M  END
>  <DSSTox_RID>
20437

>  <DSSTox_CID>
437

>  <DSSTox_Generic_SID>
20437

>  <DSSTox_FileID>
455_CPDBAS_v5d

>  <STRUCTURE_Formula>
C2H4Cl2

>  <STRUCTURE_MolecularWeight>
98.9592

>  <STRUCTURE_ChemicalType>
defined organic

>  <STRUCTURE_TestedForm_DefinedOrganic>
parent

>  <STRUCTURE_Shown>
tested chemical

>  <TestSubstance_ChemicalName>
1,1-Dichloroethane

>  <TestSubstance_CASRN>
75-34-3

>  <TestSubstance_Description>
single chemical compound

>  <STRUCTURE_ChemicalName_IUPAC>
1,1-dichloroethane

>  <STRUCTURE_SMILES>
CC(Cl)Cl

>  <STRUCTURE_Parent_SMILES>
CC(Cl)Cl

>  <STRUCTURE_InChI>
InChI=1/C2H4Cl2/c1-2(3)4/h2H,1H3

>  <STRUCTURE_InChIKey>
SCYULBFZEHDVBN-UHFFFAOYAY

>  <StudyType>
Carcinogenicity

>  <Endpoint>
TD50; Tumor Target Sites

>  <Species>
rat; mouse

>  <ActivityOutcome_CPDBAS_Mutagenicity>
inactive

>  <ActivityScore_CPDBAS_Rat>
0

>  <TD50_Rat_Note>
no positive results

>  <TargetSites_Rat_Male>
no positive results

>  <TargetSites_Rat_Female>
no positive results

>  <ActivityOutcome_CPDBAS_Rat>
inactive

>  <ActivityScore_CPDBAS_Mouse>
0

>  <TD50_Mouse_Note>
no positive results

>  <TargetSites_Mouse_Male>
no positive results

>  <TargetSites_Mouse_Female>
no positive results

>  <ActivityOutcome_CPDBAS_Mouse>
inactive

>  <ActivityOutcome_CPDBAS_SingleCellCall>
inactive

>  <ActivityOutcome_CPDBAS_MultiCellCall>
inactive

>  <ActivityOutcome_CPDBAS_MultiCellCall_Details>
multisex inactive; multispecies inactive

>  <NTP_TechnicalReport>
TR 66

>  <ChemicalPage_URL>
http://potency.berkeley.edu/chempages/1,1-DICHLOROETHANE.html

$$$$



  4  3  0  0  0  0  0  0  0  0999 V2000
    0.0000    0.0000    0.0000 Cl  0  0  0  0  0  0  0  0  0  0  0  0
    1.1513   -0.6638    0.0000 C   0  0  0  0  0  0  0  0  0  0  0  0
    2.3061    0.0000    0.0000 C   0  0  0  0  0  0  0  0  0  0  0  0
    3.4575   -0.6638    0.0000 Cl  0  0  0  0  0  0  0  0  0  0  0  0
  1  2  1  0  0  0  0
  2  3  1  0  0  0  0
  3  4  1  0  0  0  0
M  END
>  <DSSTox_RID>
20438

>  <DSSTox_CID>
438

>  <DSSTox_Generic_SID>
20438

>  <DSSTox_FileID>
456_CPDBAS_v5d

>  <STRUCTURE_Formula>
C2H4Cl2

>  <STRUCTURE_MolecularWeight>
98.9592

>  <STRUCTURE_ChemicalType>
defined organic

>  <STRUCTURE_TestedForm_DefinedOrganic>
parent

>  <STRUCTURE_Shown>
tested chemical

>  <TestSubstance_ChemicalName>
1,2-Dichloroethane

>  <TestSubstance_CASRN>
107-06-2

>  <TestSubstance_Description>
single chemical compound

>  <STRUCTURE_ChemicalName_IUPAC>
1,2-dichloroethane

>  <STRUCTURE_SMILES>
ClCCCl

>  <STRUCTURE_Parent_SMILES>
ClCCCl

>  <STRUCTURE_InChI>
InChI=1/C2H4Cl2/c3-1-2-4/h1-2H2

>  <STRUCTURE_InChIKey>
WSLDOOZREJYCGB-UHFFFAOYAL

>  <StudyType>
Carcinogenicity

>  <Endpoint>
TD50; Tumor Target Sites

>  <Species>
rat; mouse

>  <ActivityOutcome_CPDBAS_Mutagenicity>
active

>  <TD50_Rat_mg>
14.6

>  <TD50_Rat_mmol>
0.148

>  <ActivityScore_CPDBAS_Rat>
34

>  <TD50_Rat_Note>
TD50 is harmonic mean of more than one positive test; greater than ten-fold variation among TD50 values for positive results

>  <TargetSites_Rat_Male>
mammary gland;  peritoneal cavity; stomach; subcutaneous tissue; vascular system

>  <TargetSites_Rat_Female>
mammary gland; subcutaneous tissue

>  <ActivityOutcome_CPDBAS_Rat>
active

>  <TD50_Mouse_mg>
138

>  <TD50_Mouse_mmol>
1.39

>  <ActivityScore_CPDBAS_Mouse>
27

>  <TD50_Mouse_Note>
TD50 is harmonic mean of more than one positive test

>  <TargetSites_Mouse_Male>
lung; vascular system

>  <TargetSites_Mouse_Female>
liver; lung; mammary gland; uterus

>  <ActivityOutcome_CPDBAS_Mouse>
active

>  <ActivityOutcome_CPDBAS_SingleCellCall>
active

>  <ActivityOutcome_CPDBAS_MultiCellCall>
active

>  <ActivityOutcome_CPDBAS_MultiCellCall_Details>
multisite active; multisex active; multispecies active

>  <Note_CPDBAS>
Rat modified v5a; Mouse modified v5a

>  <NTP_TechnicalReport>
TR 55

>  <ChemicalPage_URL>
http://potency.berkeley.edu/chempages/1,2-DICHLOROETHANE.html

$$$$



  9  9  0  0  0  0  0  0  0  0999 V2000
    0.0000   -2.6589    0.0000 Cl  0  0  0  0  0  0  0  0  0  0  0  0
    1.1520   -1.9953    0.0000 C   0  0  0  0  0  0  0  0  0  0  0  0
    1.1520   -0.6636    0.0000 C   0  0  0  0  0  0  0  0  0  0  0  0
    2.3041    0.0000    0.0000 C   0  0  0  0  0  0  0  0  0  0  0  0
    3.4561   -0.6636    0.0000 C   0  0  0  0  0  0  0  0  0  0  0  0
    3.4561   -1.9953    0.0000 C   0  0  0  0  0  0  0  0  0  0  0  0
    2.3041   -2.6589    0.0000 C   0  0  0  0  0  0  0  0  0  0  0  0
    4.6082   -2.6589    0.0000 Cl  0  0  0  0  0  0  0  0  0  0  0  0
    0.0000    0.0000    0.0000 O   0  0  0  0  0  0  0  0  0  0  0  0
  1  2  1  0  0  0  0
  2  3  2  0  0  0  0
  2  7  1  0  0  0  0
  3  4  1  0  0  0  0
  3  9  1  0  0  0  0
  4  5  2  0  0  0  0
  5  6  1  0  0  0  0
  6  7  2  0  0  0  0
  6  8  1  0  0  0  0
M  END
>  <DSSTox_RID>
20439

>  <DSSTox_CID>
439

>  <DSSTox_Generic_SID>
20439

>  <DSSTox_FileID>
457_CPDBAS_v5d

>  <STRUCTURE_Formula>
C6H4Cl2O

>  <STRUCTURE_MolecularWeight>
163.0014

>  <STRUCTURE_ChemicalType>
defined organic

>  <STRUCTURE_TestedForm_DefinedOrganic>
parent

>  <STRUCTURE_Shown>
tested chemical

>  <TestSubstance_ChemicalName>
2,4-Dichlorophenol

>  <TestSubstance_CASRN>
120-83-2

>  <TestSubstance_Description>
single chemical compound

>  <STRUCTURE_ChemicalName_IUPAC>
2,4-dichlorophenol

>  <STRUCTURE_SMILES>
ClC1=C(C=CC(=C1)Cl)O

>  <STRUCTURE_Parent_SMILES>
ClC1=C(C=CC(=C1)Cl)O

>  <STRUCTURE_InChI>
InChI=1/C6H4Cl2O/c7-4-1-2-6(9)5(8)3-4/h1-3,9H

>  <STRUCTURE_InChIKey>
HFZWRUODUSTPEG-UHFFFAOYAU

>  <StudyType>
Carcinogenicity

>  <Endpoint>
TD50; Tumor Target Sites

>  <Species>
rat; mouse

>  <ActivityOutcome_CPDBAS_Mutagenicity>
inactive

>  <ActivityScore_CPDBAS_Rat>
0

>  <TD50_Rat_Note>
no positive results

>  <TargetSites_Rat_Male>
no positive results

>  <TargetSites_Rat_Female>
no positive results

>  <ActivityOutcome_CPDBAS_Rat>
inactive

>  <ActivityScore_CPDBAS_Mouse>
0

>  <TD50_Mouse_Note>
no positive results

>  <TargetSites_Mouse_Male>
no positive results

>  <TargetSites_Mouse_Female>
no positive results

>  <ActivityOutcome_CPDBAS_Mouse>
inactive

>  <ActivityOutcome_CPDBAS_SingleCellCall>
inactive

>  <ActivityOutcome_CPDBAS_MultiCellCall>
inactive

>  <ActivityOutcome_CPDBAS_MultiCellCall_Details>
multisex inactive; multispecies inactive

>  <NTP_TechnicalReport>
TR 353

>  <ChemicalPage_URL>
http://potency.berkeley.edu/chempages/2,4-DICHLOROPHENOL.html

$$$$



 14 14  0  0  0  0  0  0  0  0999 V2000
    2.3046    0.0000    0.0000 Cl  0  0  0  0  0  0  0  0  0  0  0  0
    2.3046   -1.3296    0.0000 C   0  0  0  0  0  0  0  0  0  0  0  0
    3.4569   -1.9984    0.0000 C   0  0  0  0  0  0  0  0  0  0  0  0
    3.4569   -3.3280    0.0000 C   0  0  0  0  0  0  0  0  0  0  0  0
    2.3046   -3.9888    0.0000 C   0  0  0  0  0  0  0  0  0  0  0  0
    1.1523   -3.3280    0.0000 C   0  0  0  0  0  0  0  0  0  0  0  0
    1.1523   -1.9984    0.0000 C   0  0  0  0  0  0  0  0  0  0  0  0
    0.0000   -3.9888    0.0000 Cl  0  0  0  0  0  0  0  0  0  0  0  0
    4.6012   -1.3296    0.0000 O   0  0  0  0  0  0  0  0  0  0  0  0
    5.7535   -1.9984    0.0000 C   0  0  3  0  0  0  0  0  0  0  0  0
    6.9058   -1.3296    0.0000 C   0  0  0  0  0  0  0  0  0  0  0  0
    6.9058    0.0000    0.0000 O   0  0  0  0  0  0  0  0  0  0  0  0
    8.0581   -1.9984    0.0000 O   0  0  0  0  0  0  0  0  0  0  0  0
    5.7535   -3.3280    0.0000 C   0  0  0  0  0  0  0  0  0  0  0  0
  1  2  1  0  0  0  0
  2  3  2  0  0  0  0
  2  7  1  0  0  0  0
  3  4  1  0  0  0  0
  3  9  1  0  0  0  0
  4  5  2  0  0  0  0
  5  6  1  0  0  0  0
  6  7  2  0  0  0  0
  6  8  1  0  0  0  0
  9 10  1  0  0  0  0
 10 11  1  0  0  0  0
 10 14  1  0  0  0  0
 11 12  2  0  0  0  0
 11 13  1  0  0  0  0
M  END
>  <DSSTox_RID>
20440

>  <DSSTox_CID>
440

>  <DSSTox_Generic_SID>
20440

>  <DSSTox_FileID>
458_CPDBAS_v5d

>  <STRUCTURE_Formula>
C9H8Cl2O3

>  <STRUCTURE_MolecularWeight>
235.064

>  <STRUCTURE_ChemicalType>
defined organic

>  <STRUCTURE_TestedForm_DefinedOrganic>
parent

>  <STRUCTURE_Shown>
tested chemical

>  <TestSubstance_ChemicalName>
alpha-(2,4-Dichlorophenoxy)propionic acid

>  <TestSubstance_CASRN>
120-36-5

>  <TestSubstance_Description>
single chemical compound

>  <ChemicalNote>
mixture of 2R [15165-67-0], 2S [15165-69-2], structure shown without stereochem

>  <STRUCTURE_ChemicalName_IUPAC>
2-(2,4-dichlorophenoxy)propanoic acid

>  <STRUCTURE_SMILES>
ClC1=C(OC(C)C(O)=O)C=CC(Cl)=C1

>  <STRUCTURE_Parent_SMILES>
ClC1=C(OC(C)C(O)=O)C=CC(Cl)=C1

>  <STRUCTURE_InChI>
InChI=1/C9H8Cl2O3/c1-5(9(12)13)14-8-3-2-6(10)4-7(8)11/h2-5H,1H3,(H,12,13)/f/h12H

>  <STRUCTURE_InChIKey>
MZHCENGPTKEIGP-XWKXFZRBCV

>  <StudyType>
Carcinogenicity

>  <Endpoint>
TD50; Tumor Target Sites

>  <Species>
mouse

>  <ActivityScore_CPDBAS_Mouse>
0

>  <TD50_Mouse_Note>
no positive results

>  <TargetSites_Mouse_Male>
no positive results

>  <TargetSites_Mouse_Female>
no positive results

>  <ActivityOutcome_CPDBAS_Mouse>
inactive

>  <ActivityOutcome_CPDBAS_SingleCellCall>
inactive

>  <ActivityOutcome_CPDBAS_MultiCellCall>
inactive

>  <ActivityOutcome_CPDBAS_MultiCellCall_Details>
multisex inactive

>  <ChemicalPage_URL>
http://potency.berkeley.edu/chempages/alpha-(2,4-DICHLOROPHENOXY)PROPIONIC%20ACID.html

$$$$



 14 14  0  0  0  0  0  0  0  0999 V2000
    2.6570    0.0000    0.0000 Cl  0  0  0  0  0  0  0  0  0  0  0  0
    1.9928   -1.1490    0.0000 C   0  0  0  0  0  0  0  0  0  0  0  0
    2.6570   -2.3040    0.0000 C   0  0  0  0  0  0  0  0  0  0  0  0
    1.9928   -3.4530    0.0000 C   0  0  0  0  0  0  0  0  0  0  0  0
    0.6643   -3.4530    0.0000 C   0  0  0  0  0  0  0  0  0  0  0  0
    0.0000   -2.3040    0.0000 C   0  0  0  0  0  0  0  0  0  0  0  0
    0.6643   -1.1490    0.0000 C   0  0  0  0  0  0  0  0  0  0  0  0
    0.0000   -4.6079    0.0000 Cl  0  0  0  0  0  0  0  0  0  0  0  0
    3.9916   -2.3040    0.0000 O   0  0  0  0  0  0  0  0  0  0  0  0
    4.6558   -3.4530    0.0000 C   0  0  3  0  0  0  0  0  0  0  0  0
    3.9916   -4.6079    0.0000 C   0  0  0  0  0  0  0  0  0  0  0  0
    4.6558   -5.7569    0.0000 O   0  0  0  0  0  0  0  0  0  0  0  0
    2.6570   -4.6079    0.0000 O   0  0  0  0  0  0  0  0  0  0  0  0
    5.9843   -3.4530    0.0000 C   0  0  0  0  0  0  0  0  0  0  0  0
  1  2  1  0  0  0  0
  2  3  2  0  0  0  0
  2  7  1  0  0  0  0
  3  4  1  0  0  0  0
  3  9  1  0  0  0  0
  4  5  2  0  0  0  0
  5  6  1  0  0  0  0
  5  8  1  0  0  0  0
  6  7  2  0  0  0  0
  9 10  1  0  0  0  0
 10 11  1  0  0  0  0
 10 14  1  0  0  0  0
 11 12  2  0  0  0  0
 11 13  1  0  0  0  0
M  END
>  <DSSTox_RID>
20441

>  <DSSTox_CID>
441

>  <DSSTox_Generic_SID>
20441

>  <DSSTox_FileID>
459_CPDBAS_v5d

>  <STRUCTURE_Formula>
C9H8Cl2O3

>  <STRUCTURE_MolecularWeight>
235.0664

>  <STRUCTURE_ChemicalType>
defined organic

>  <STRUCTURE_TestedForm_DefinedOrganic>
parent

>  <STRUCTURE_Shown>
tested chemical

>  <TestSubstance_ChemicalName>
alpha-(2,5-Dichlorophenoxy)propionic acid

>  <TestSubstance_CASRN>
6965-71-5

>  <TestSubstance_Description>
single chemical compound

>  <STRUCTURE_ChemicalName_IUPAC>
2-[(2,5-dichlorophenyl)oxy]propanoic acid

>  <STRUCTURE_SMILES>
ClC1=C(C=C(C=C1)Cl)OC(C(=O)O)C

>  <STRUCTURE_Parent_SMILES>
ClC1=C(C=C(C=C1)Cl)OC(C(=O)O)C

>  <STRUCTURE_InChI>
InChI=1/C9H8Cl2O3/c1-5(9(12)13)14-8-4-6(10)2-3-7(8)11/h2-5H,1H3,(H,12,13)/f/h12H

>  <STRUCTURE_InChIKey>
LDRYOEIGQCIMEK-XWKXFZRBCC

>  <StudyType>
Carcinogenicity

>  <Endpoint>
TD50; Tumor Target Sites

>  <Species>
mouse

>  <ActivityScore_CPDBAS_Mouse>
0

>  <TD50_Mouse_Note>
no positive results

>  <TargetSites_Mouse_Male>
no positive results

>  <TargetSites_Mouse_Female>
no positive results

>  <ActivityOutcome_CPDBAS_Mouse>
inactive

>  <ActivityOutcome_CPDBAS_SingleCellCall>
inactive

>  <ActivityOutcome_CPDBAS_MultiCellCall>
inactive

>  <ActivityOutcome_CPDBAS_MultiCellCall_Details>
multisex inactive

>  <ChemicalPage_URL>
http://potency.berkeley.edu/chempages/alpha-(2,5-DICHLOROPHENOXY)PROPIONIC%20ACID.html

$$$$



 13 13  0  0  0  0  0  0  0  0999 V2000
    6.0582    0.0000    0.0000 Cl  0  0  0  0  0  0  0  0  0  0  0  0
    6.0582    1.4000    0.0000 C   0  0  0  0  0  0  0  0  0  0  0  0
    4.8448    2.0957    0.0000 C   0  0  0  0  0  0  0  0  0  0  0  0
    4.8448    3.4958    0.0000 C   0  0  0  0  0  0  0  0  0  0  0  0
    6.0582    4.2000    0.0000 C   0  0  0  0  0  0  0  0  0  0  0  0
    7.2715    3.4958    0.0000 C   0  0  0  0  0  0  0  0  0  0  0  0
    7.2715    2.0957    0.0000 C   0  0  0  0  0  0  0  0  0  0  0  0
    8.4849    4.2000    0.0000 Cl  0  0  0  0  0  0  0  0  0  0  0  0
    3.6400    1.4000    0.0000 O   0  0  0  0  0  0  0  0  0  0  0  0
    2.4267    2.0957    0.0000 C   0  0  0  0  0  0  0  0  0  0  0  0
    1.2133    1.4000    0.0000 C   0  0  0  0  0  0  0  0  0  0  0  0
    1.2133    0.0000    0.0000 O   0  0  0  0  0  0  0  0  0  0  0  0
    0.0000    2.0957    0.0000 O   0  0  0  0  0  0  0  0  0  0  0  0
  1  2  1  0  0  0  0
  2  3  2  0  0  0  0
  2  7  1  0  0  0  0
  3  4  1  0  0  0  0
  3  9  1  0  0  0  0
  4  5  2  0  0  0  0
  5  6  1  0  0  0  0
  6  7  2  0  0  0  0
  6  8  1  0  0  0  0
  9 10  1  0  0  0  0
 10 11  1  0  0  0  0
 11 12  2  0  0  0  0
 11 13  1  0  0  0  0
M  END
>  <DSSTox_RID>
20442

>  <DSSTox_CID>
442

>  <DSSTox_Generic_SID>
20442

>  <DSSTox_FileID>
460_CPDBAS_v5d

>  <STRUCTURE_Formula>
C8H6Cl2O3

>  <STRUCTURE_MolecularWeight>
221.0374

>  <STRUCTURE_ChemicalType>
defined organic

>  <STRUCTURE_TestedForm_DefinedOrganic>
parent

>  <STRUCTURE_Shown>
tested chemical

>  <TestSubstance_ChemicalName>
2,4-Dichlorophenoxyacetic acid

>  <TestSubstance_CASRN>
94-75-7

>  <TestSubstance_Description>
single chemical compound

>  <STRUCTURE_ChemicalName_IUPAC>
(2,4-dichlorophenoxy)acetic acid

>  <STRUCTURE_SMILES>
ClC1=C(C=CC(=C1)Cl)OCC(=O)O

>  <STRUCTURE_Parent_SMILES>
ClC1=C(C=CC(=C1)Cl)OCC(=O)O

>  <STRUCTURE_InChI>
InChI=1/C8H6Cl2O3/c9-5-1-2-7(6(10)3-5)13-4-8(11)12/h1-3H,4H2,(H,11,12)/f/h11H

>  <STRUCTURE_InChIKey>
OVSKIKFHRZPJSS-WXRBYKJCCM

>  <StudyType>
Carcinogenicity

>  <Endpoint>
TD50; Tumor Target Sites

>  <Species>
rat; mouse

>  <ActivityOutcome_CPDBAS_Mutagenicity>
inactive

>  <ActivityScore_CPDBAS_Rat>
0

>  <TD50_Rat_Note>
no positive results

>  <TargetSites_Rat_Male>
no positive results

>  <TargetSites_Rat_Female>
no positive results

>  <ActivityOutcome_CPDBAS_Rat>
inactive

>  <ActivityScore_CPDBAS_Mouse>
0

>  <TD50_Mouse_Note>
no positive results

>  <TargetSites_Mouse_Male>
no positive results

>  <TargetSites_Mouse_Female>
no positive results

>  <ActivityOutcome_CPDBAS_Mouse>
inactive

>  <ActivityOutcome_CPDBAS_SingleCellCall>
inactive

>  <ActivityOutcome_CPDBAS_MultiCellCall>
inactive

>  <ActivityOutcome_CPDBAS_MultiCellCall_Details>
multisex inactive; multispecies inactive

>  <Note_CPDBAS>
Rat added v3a

>  <ChemicalPage_URL>
http://potency.berkeley.edu/chempages/2,4-DICHLOROPHENOXYACETIC%20ACID.html

$$$$



 17 17  0  0  0  0  0  0  0  0999 V2000
    7.2807    2.8003    0.0000 C   0  0  0  0  0  0  0  0  0  0  0  0
    7.2807    4.2089    0.0000 O   0  0  0  0  0  0  0  0  0  0  0  0
    8.5026    2.1044    0.0000 O   0  0  0  0  0  0  0  0  0  0  0  0
    6.0757    2.1044    0.0000 C   0  0  0  0  0  0  0  0  0  0  0  0
    4.8368    2.8003    0.0000 O   0  0  0  0  0  0  0  0  0  0  0  0
    3.6488    2.1044    0.0000 C   0  0  0  0  0  0  0  0  0  0  0  0
    3.6488    0.7128    0.0000 C   0  0  0  0  0  0  0  0  0  0  0  0
    2.4269    2.8003    0.0000 C   0  0  0  0  0  0  0  0  0  0  0  0
    2.4269    0.0000    0.0000 C   0  0  0  0  0  0  0  0  0  0  0  0
    1.2219    2.1044    0.0000 C   0  0  0  0  0  0  0  0  0  0  0  0
    1.2219    0.7128    0.0000 C   0  0  0  0  0  0  0  0  0  0  0  0
    4.8368    0.0000    0.0000 Cl  0  0  0  0  0  0  0  0  0  0  0  0
    0.0000    0.0000    0.0000 Cl  0  0  0  0  0  0  0  0  0  0  0  0
    9.7245    2.8003    0.0000 C   0  0  0  0  0  0  0  0  0  0  0  0
   10.9295    2.1044    0.0000 C   0  0  0  0  0  0  0  0  0  0  0  0
   12.1514    2.8003    0.0000 C   0  0  0  0  0  0  0  0  0  0  0  0
   13.3564    2.1044    0.0000 C   0  0  0  0  0  0  0  0  0  0  0  0
  2  1  2  0  0  0  0
  3  1  1  0  0  0  0
  4  1  1  0  0  0  0
 14  3  1  0  0  0  0
  5  4  1  0  0  0  0
  6  5  1  0  0  0  0
  7  6  2  0  0  0  0
  8  6  1  0  0  0  0
  9  7  1  0  0  0  0
 12  7  1  0  0  0  0
 10  8  2  0  0  0  0
 11  9  2  0  0  0  0
 11 10  1  0  0  0  0
 13 11  1  0  0  0  0
 15 14  1  0  0  0  0
 16 15  1  0  0  0  0
 17 16  1  0  0  0  0
M  END
>  <DSSTox_RID>
20443

>  <DSSTox_CID>
443

>  <DSSTox_Generic_SID>
20443

>  <DSSTox_FileID>
461_CPDBAS_v5d

>  <STRUCTURE_Formula>
C12H14Cl2O3

>  <STRUCTURE_MolecularWeight>
277.1438

>  <STRUCTURE_ChemicalType>
defined organic

>  <STRUCTURE_TestedForm_DefinedOrganic>
parent

>  <STRUCTURE_Shown>
tested chemical

>  <TestSubstance_ChemicalName>
2,4-Dichlorophenoxyacetic acid, n-butyl ester

>  <TestSubstance_CASRN>
94-80-4

>  <TestSubstance_Description>
single chemical compound

>  <STRUCTURE_ChemicalName_IUPAC>
butyl [(2,4-dichlorophenyl)oxy]acetate

>  <STRUCTURE_SMILES>
ClC1=C(C=CC(=C1)Cl)OCC(=O)OCCCC

>  <STRUCTURE_Parent_SMILES>
ClC1=C(C=CC(=C1)Cl)OCC(=O)OCCCC

>  <STRUCTURE_InChI>
InChI=1/C12H14Cl2O3/c1-2-3-6-16-12(15)8-17-11-5-4-9(13)7-10(11)14/h4-5,7H,2-3,6,8H2,1H3

>  <STRUCTURE_InChIKey>
UQMRAFJOBWOFNS-UHFFFAOYAV

>  <StudyType>
Carcinogenicity

>  <Endpoint>
TD50; Tumor Target Sites

>  <Species>
mouse

>  <ActivityOutcome_CPDBAS_Mutagenicity>
inactive

>  <ActivityScore_CPDBAS_Mouse>
0

>  <TD50_Mouse_Note>
no positive results

>  <TargetSites_Mouse_Male>
no positive results

>  <TargetSites_Mouse_Female>
no positive results

>  <ActivityOutcome_CPDBAS_Mouse>
inactive

>  <ActivityOutcome_CPDBAS_SingleCellCall>
inactive

>  <ActivityOutcome_CPDBAS_MultiCellCall>
inactive

>  <ActivityOutcome_CPDBAS_MultiCellCall_Details>
multisex inactive

>  <ChemicalPage_URL>
http://potency.berkeley.edu/chempages/2,4-DICHLOROPHENOXYACETIC%20ACID,%20n-BUTYL%20ESTER.html

$$$$



 16 16  0  0  0  0  0  0  0  0999 V2000
    7.2488    2.7880    0.0000 C   0  0  0  0  0  0  0  0  0  0  0  0
    7.2488    4.1904    0.0000 O   0  0  0  0  0  0  0  0  0  0  0  0
    8.4654    2.0952    0.0000 O   0  0  0  0  0  0  0  0  0  0  0  0
    6.0491    2.0952    0.0000 C   0  0  0  0  0  0  0  0  0  0  0  0
    4.8156    2.7880    0.0000 O   0  0  0  0  0  0  0  0  0  0  0  0
    3.6328    2.0952    0.0000 C   0  0  0  0  0  0  0  0  0  0  0  0
    3.6328    0.7097    0.0000 C   0  0  0  0  0  0  0  0  0  0  0  0
    2.4163    2.7880    0.0000 C   0  0  0  0  0  0  0  0  0  0  0  0
    2.4163    0.0000    0.0000 C   0  0  0  0  0  0  0  0  0  0  0  0
    1.2166    2.0952    0.0000 C   0  0  0  0  0  0  0  0  0  0  0  0
    1.2166    0.7097    0.0000 C   0  0  0  0  0  0  0  0  0  0  0  0
    4.8156    0.0000    0.0000 Cl  0  0  0  0  0  0  0  0  0  0  0  0
    0.0000    0.0000    0.0000 Cl  0  0  0  0  0  0  0  0  0  0  0  0
    9.6819    2.7880    0.0000 C   0  0  0  0  0  0  0  0  0  0  0  0
   10.8816    2.0952    0.0000 C   0  0  0  0  0  0  0  0  0  0  0  0
    9.6862    4.1880    0.0000 C   0  0  0  0  0  0  0  0  0  0  0  0
  2  1  2  0  0  0  0
  3  1  1  0  0  0  0
  4  1  1  0  0  0  0
 14  3  1  0  0  0  0
  5  4  1  0  0  0  0
  6  5  1  0  0  0  0
  7  6  2  0  0  0  0
  8  6  1  0  0  0  0
  9  7  1  0  0  0  0
 12  7  1  0  0  0  0
 10  8  2  0  0  0  0
 11  9  2  0  0  0  0
 11 10  1  0  0  0  0
 13 11  1  0  0  0  0
 15 14  1  0  0  0  0
 14 16  1  0  0  0  0
M  END
>  <DSSTox_RID>
20445

>  <DSSTox_CID>
445

>  <DSSTox_Generic_SID>
20445

>  <DSSTox_FileID>
463_CPDBAS_v5d

>  <STRUCTURE_Formula>
C11H12Cl2O3

>  <STRUCTURE_MolecularWeight>
263.1172

>  <STRUCTURE_ChemicalType>
defined organic

>  <STRUCTURE_TestedForm_DefinedOrganic>
parent

>  <STRUCTURE_Shown>
tested chemical

>  <TestSubstance_ChemicalName>
2,4-Dichlorophenoxyacetic acid, isopropyl ester

>  <TestSubstance_CASRN>
94-11-1

>  <TestSubstance_Description>
single chemical compound

>  <STRUCTURE_ChemicalName_IUPAC>
1-methylethyl [(2,4-dichlorophenyl)oxy]acetate

>  <STRUCTURE_SMILES>
ClC1=CC(=CC=C1OCC(=O)OC(C)C)Cl

>  <STRUCTURE_Parent_SMILES>
ClC1=CC(=CC=C1OCC(=O)OC(C)C)Cl

>  <STRUCTURE_InChI>
InChI=1/C11H12Cl2O3/c1-7(2)16-11(14)6-15-10-4-3-8(12)5-9(10)13/h3-5,7H,6H2,1-2H3

>  <STRUCTURE_InChIKey>
WHOKDONDRZNCBC-UHFFFAOYAJ

>  <StudyType>
Carcinogenicity

>  <Endpoint>
TD50; Tumor Target Sites

>  <Species>
mouse

>  <ActivityScore_CPDBAS_Mouse>
0

>  <TD50_Mouse_Note>
no positive results

>  <TargetSites_Mouse_Male>
no positive results

>  <TargetSites_Mouse_Female>
no positive results

>  <ActivityOutcome_CPDBAS_Mouse>
inactive

>  <ActivityOutcome_CPDBAS_SingleCellCall>
inactive

>  <ActivityOutcome_CPDBAS_MultiCellCall>
inactive

>  <ActivityOutcome_CPDBAS_MultiCellCall_Details>
multisex inactive

>  <ChemicalPage_URL>
http://potency.berkeley.edu/chempages/2,4-DICHLOROPHENOXYACETIC%20ACID,%20ISOPROPYL%20ESTER.html

$$$$



 14 14  0  0  0  0  0  0  0  0999 V2000
    0.0000   -2.6606    0.0000 Cl  0  0  0  0  0  0  0  0  0  0  0  0
    1.1541   -1.9972    0.0000 C   0  0  0  0  0  0  0  0  0  0  0  0
    1.1541   -0.6634    0.0000 C   0  0  0  0  0  0  0  0  0  0  0  0
    2.3012    0.0000    0.0000 C   0  0  0  0  0  0  0  0  0  0  0  0
    3.4553   -0.6634    0.0000 C   0  0  0  0  0  0  0  0  0  0  0  0
    3.4553   -1.9972    0.0000 C   0  0  0  0  0  0  0  0  0  0  0  0
    2.3012   -2.6606    0.0000 C   0  0  0  0  0  0  0  0  0  0  0  0
    4.6093   -2.6606    0.0000 N   0  0  0  0  0  0  0  0  0  0  0  0
    5.7565   -1.9972    0.0000 C   0  0  0  0  0  0  0  0  0  0  0  0
    6.9106   -2.6606    0.0000 O   0  0  0  0  0  0  0  0  0  0  0  0
    5.7565   -0.6634    0.0000 N   0  0  0  0  0  0  0  0  0  0  0  0
    6.9106    0.0000    0.0000 C   0  0  0  0  0  0  0  0  0  0  0  0
    4.6093    0.0000    0.0000 C   0  0  0  0  0  0  0  0  0  0  0  0
    0.0000    0.0000    0.0000 Cl  0  0  0  0  0  0  0  0  0  0  0  0
  1  2  1  0  0  0  0
  2  3  2  0  0  0  0
  2  7  1  0  0  0  0
  3  4  1  0  0  0  0
  3 14  1  0  0  0  0
  4  5  2  0  0  0  0
  5  6  1  0  0  0  0
  6  7  2  0  0  0  0
  6  8  1  0  0  0  0
  8  9  1  0  0  0  0
  9 10  2  0  0  0  0
  9 11  1  0  0  0  0
 11 12  1  0  0  0  0
 11 13  1  0  0  0  0
M  END
>  <DSSTox_RID>
20446

>  <DSSTox_CID>
446

>  <DSSTox_Generic_SID>
20446

>  <DSSTox_FileID>
464_CPDBAS_v5d

>  <STRUCTURE_Formula>
C9H10Cl2N2O

>  <STRUCTURE_MolecularWeight>
233.0945

>  <STRUCTURE_ChemicalType>
defined organic

>  <STRUCTURE_TestedForm_DefinedOrganic>
parent

>  <STRUCTURE_Shown>
tested chemical

>  <TestSubstance_ChemicalName>
3-(3,4-Dichlorophenyl)-1,1-dimethylurea

>  <TestSubstance_CASRN>
330-54-1

>  <TestSubstance_Description>
single chemical compound

>  <STRUCTURE_ChemicalName_IUPAC>
3-(3,4-dichlorophenyl)-1,1-dimethylurea

>  <STRUCTURE_SMILES>
ClC1=C(C=CC(=C1)NC(=O)N(C)C)Cl

>  <STRUCTURE_Parent_SMILES>
ClC1=C(C=CC(=C1)NC(=O)N(C)C)Cl

>  <STRUCTURE_InChI>
InChI=1/C9H10Cl2N2O/c1-13(2)9(14)12-6-3-4-7(10)8(11)5-6/h3-5H,1-2H3,(H,12,14)/f/h12H

>  <STRUCTURE_InChIKey>
XMTQQYYKAHVGBJ-XWKXFZRBCR

>  <StudyType>
Carcinogenicity

>  <Endpoint>
TD50; Tumor Target Sites

>  <Species>
mouse

>  <ActivityScore_CPDBAS_Mouse>
0

>  <TD50_Mouse_Note>
no positive results

>  <TargetSites_Mouse_Male>
no positive results

>  <TargetSites_Mouse_Female>
no positive results

>  <ActivityOutcome_CPDBAS_Mouse>
inactive

>  <ActivityOutcome_CPDBAS_SingleCellCall>
inactive

>  <ActivityOutcome_CPDBAS_MultiCellCall>
inactive

>  <ActivityOutcome_CPDBAS_MultiCellCall_Details>
multisex inactive

>  <ChemicalPage_URL>
http://potency.berkeley.edu/chempages/3-(3,4-DICHLOROPHENYL)-1,1-DIMETHYLUREA.html

$$$$



 18 19  0  0  0  0  0  0  0  0999 V2000
    4.6504   -3.4575    0.0000 Cl  0  0  0  0  0  0  0  0  0  0  0  0
    5.3160   -2.2993    0.0000 C   0  0  0  0  0  0  0  0  0  0  0  0
    4.6504   -1.1496    0.0000 C   0  0  0  0  0  0  0  0  0  0  0  0
    5.3160    0.0000    0.0000 C   0  0  0  0  0  0  0  0  0  0  0  0
    6.6471    0.0000    0.0000 C   0  0  0  0  0  0  0  0  0  0  0  0
    7.3127   -1.1496    0.0000 C   0  0  0  0  0  0  0  0  0  0  0  0
    6.6471   -2.2993    0.0000 C   0  0  0  0  0  0  0  0  0  0  0  0
    8.6439   -1.1496    0.0000 Cl  0  0  0  0  0  0  0  0  0  0  0  0
    3.3279   -1.1496    0.0000 O   0  0  0  0  0  0  0  0  0  0  0  0
    2.6623   -2.2993    0.0000 S   0  0  0  0  0  0  0  0  0  0  0  0
    3.8119   -2.9648    0.0000 O   0  0  0  0  0  0  0  0  0  0  0  0
    1.5040   -1.6337    0.0000 O   0  0  0  0  0  0  0  0  0  0  0  0
    1.9967   -3.4575    0.0000 C   0  0  0  0  0  0  0  0  0  0  0  0
    0.6656   -3.4575    0.0000 C   0  0  0  0  0  0  0  0  0  0  0  0
    0.0000   -4.6072    0.0000 C   0  0  0  0  0  0  0  0  0  0  0  0
    0.6656   -5.7568    0.0000 C   0  0  0  0  0  0  0  0  0  0  0  0
    1.9967   -5.7568    0.0000 C   0  0  0  0  0  0  0  0  0  0  0  0
    2.6623   -4.6072    0.0000 C   0  0  0  0  0  0  0  0  0  0  0  0
  1  2  1  0  0  0  0
  2  3  2  0  0  0  0
  2  7  1  0  0  0  0
  3  4  1  0  0  0  0
  3  9  1  0  0  0  0
  4  5  2  0  0  0  0
  5  6  1  0  0  0  0
  6  7  2  0  0  0  0
  6  8  1  0  0  0  0
  9 10  1  0  0  0  0
 10 11  2  0  0  0  0
 10 12  2  0  0  0  0
 10 13  1  0  0  0  0
 13 14  2  0  0  0  0
 13 18  1  0  0  0  0
 14 15  1  0  0  0  0
 15 16  2  0  0  0  0
 16 17  1  0  0  0  0
 17 18  2  0  0  0  0
M  END
>  <DSSTox_RID>
20447

>  <DSSTox_CID>
447

>  <DSSTox_Generic_SID>
20447

>  <DSSTox_FileID>
465_CPDBAS_v5d

>  <STRUCTURE_Formula>
C12H8Cl2O3S

>  <STRUCTURE_MolecularWeight>
303.1594

>  <STRUCTURE_ChemicalType>
defined organic

>  <STRUCTURE_TestedForm_DefinedOrganic>
parent

>  <STRUCTURE_Shown>
tested chemical

>  <TestSubstance_ChemicalName>
2,4-Dichlorophenylbenzene sulfonate

>  <TestSubstance_CASRN>
97-16-5

>  <TestSubstance_Description>
single chemical compound

>  <STRUCTURE_ChemicalName_IUPAC>
2,4-dichlorophenyl benzenesulfonate

>  <STRUCTURE_SMILES>
ClC1=C(C=CC(=C1)Cl)OS(=O)(=O)C2=CC=CC=C2

>  <STRUCTURE_Parent_SMILES>
ClC1=C(C=CC(=C1)Cl)OS(=O)(=O)C2=CC=CC=C2

>  <STRUCTURE_InChI>
InChI=1/C12H8Cl2O3S/c13-9-6-7-12(11(14)8-9)17-18(15,16)10-4-2-1-3-5-10/h1-8H

>  <STRUCTURE_InChIKey>
OZFAFGSSMRRTDW-UHFFFAOYAW

>  <StudyType>
Carcinogenicity

>  <Endpoint>
TD50; Tumor Target Sites

>  <Species>
mouse

>  <ActivityScore_CPDBAS_Mouse>
0

>  <TD50_Mouse_Note>
no positive results

>  <TargetSites_Mouse_Male>
no positive results

>  <TargetSites_Mouse_Female>
no positive results

>  <ActivityOutcome_CPDBAS_Mouse>
inactive

>  <ActivityOutcome_CPDBAS_SingleCellCall>
inactive

>  <ActivityOutcome_CPDBAS_MultiCellCall>
inactive

>  <ActivityOutcome_CPDBAS_MultiCellCall_Details>
multisex inactive

>  <ChemicalPage_URL>
http://potency.berkeley.edu/chempages/2,4-DICHLOROPHENYLBENZENE%20SULFONATE.html

$$$$



  5  4  0  0  0  0  0  0  0  0999 V2000
    3.4567   -1.9945    0.0000 C   0  0  0  0  0  0  0  0  0  0  0  0
    2.3056   -1.3308    0.0000 C   0  0  3  0  0  0  0  0  0  0  0  0
    1.1511   -1.9945    0.0000 C   0  0  0  0  0  0  0  0  0  0  0  0
    0.0000   -1.3308    0.0000 Cl  0  0  0  0  0  0  0  0  0  0  0  0
    2.3056    0.0000    0.0000 Cl  0  0  0  0  0  0  0  0  0  0  0  0
  1  2  1  0  0  0  0
  2  3  1  0  0  0  0
  2  5  1  0  0  0  0
  3  4  1  0  0  0  0
M  END
>  <DSSTox_RID>
20448

>  <DSSTox_CID>
448

>  <DSSTox_Generic_SID>
20448

>  <DSSTox_FileID>
466_CPDBAS_v5d

>  <STRUCTURE_Formula>
C3H6Cl2

>  <STRUCTURE_MolecularWeight>
112.9857

>  <STRUCTURE_ChemicalType>
defined organic

>  <STRUCTURE_TestedForm_DefinedOrganic>
parent

>  <STRUCTURE_Shown>
tested chemical

>  <TestSubstance_ChemicalName>
1,2-Dichloropropane

>  <TestSubstance_CASRN>
78-87-5

>  <TestSubstance_Description>
single chemical compound

>  <STRUCTURE_ChemicalName_IUPAC>
1,2-dichloropropane

>  <STRUCTURE_SMILES>
CC(Cl)CCl

>  <STRUCTURE_Parent_SMILES>
CC(Cl)CCl

>  <STRUCTURE_InChI>
InChI=1/C3H6Cl2/c1-3(5)2-4/h3H,2H2,1H3

>  <STRUCTURE_InChIKey>
KNKRKFALVUDBJE-UHFFFAOYAR

>  <StudyType>
Carcinogenicity

>  <Endpoint>
TD50; Tumor Target Sites

>  <Species>
rat; mouse

>  <ActivityOutcome_CPDBAS_Mutagenicity>
active

>  <ActivityScore_CPDBAS_Rat>
0

>  <TD50_Rat_Note>
no positive results

>  <TargetSites_Rat_Male>
no positive results

>  <TargetSites_Rat_Female>
no positive results

>  <ActivityOutcome_CPDBAS_Rat>
inactive

>  <TD50_Mouse_mg>
276

>  <TD50_Mouse_mmol>
2.44

>  <ActivityScore_CPDBAS_Mouse>
24

>  <TD50_Mouse_Note>
TD50 is harmonic mean of more than one positive test

>  <TargetSites_Mouse_Male>
liver

>  <TargetSites_Mouse_Female>
liver

>  <ActivityOutcome_CPDBAS_Mouse>
active

>  <ActivityOutcome_CPDBAS_SingleCellCall>
active

>  <ActivityOutcome_CPDBAS_MultiCellCall>
active

>  <ActivityOutcome_CPDBAS_MultiCellCall_Details>
multisex active

>  <NTP_TechnicalReport>
TR 263

>  <ChemicalPage_URL>
http://potency.berkeley.edu/chempages/1,2-DICHLOROPROPANE.html

$$$$



 11 10  0  0  0  0  0  0  0  0999 V2000
    3.3245   -1.9911    0.0000 O   0  0  0  0  0  0  0  0  0  0  0  0
    1.9911   -1.9911    0.0000 P   0  0  0  0  0  0  0  0  0  0  0  0
    1.9911   -3.3245    0.0000 O   0  0  0  0  0  0  0  0  0  0  0  0
    3.1451   -3.9882    0.0000 C   0  0  0  0  0  0  0  0  0  0  0  0
    3.1451   -5.3156    0.0000 C   0  0  0  0  0  0  0  0  0  0  0  0
    4.2931   -5.9793    0.0000 Cl  0  0  0  0  0  0  0  0  0  0  0  0
    1.9911   -5.9793    0.0000 Cl  0  0  0  0  0  0  0  0  0  0  0  0
    0.6637   -1.9911    0.0000 O   0  0  0  0  0  0  0  0  0  0  0  0
    0.0000   -3.1451    0.0000 C   0  0  0  0  0  0  0  0  0  0  0  0
    1.9911   -0.6637    0.0000 O   0  0  0  0  0  0  0  0  0  0  0  0
    3.1451    0.0000    0.0000 C   0  0  0  0  0  0  0  0  0  0  0  0
  1  2  2  0  0  0  0
  2  3  1  0  0  0  0
  2  8  1  0  0  0  0
  2 10  1  0  0  0  0
  3  4  1  0  0  0  0
  4  5  2  0  0  0  0
  5  6  1  0  0  0  0
  5  7  1  0  0  0  0
  8  9  1  0  0  0  0
 10 11  1  0  0  0  0
M  END
>  <DSSTox_RID>
20449

>  <DSSTox_CID>
449

>  <DSSTox_Generic_SID>
20449

>  <DSSTox_FileID>
467_CPDBAS_v5d

>  <STRUCTURE_Formula>
C4H7Cl2O4P

>  <STRUCTURE_MolecularWeight>
220.9757

>  <STRUCTURE_ChemicalType>
defined organic

>  <STRUCTURE_TestedForm_DefinedOrganic>
parent

>  <STRUCTURE_Shown>
tested chemical

>  <TestSubstance_ChemicalName>
Dichlorvos

>  <TestSubstance_CASRN>
62-73-7

>  <TestSubstance_Description>
single chemical compound

>  <STRUCTURE_ChemicalName_IUPAC>
2,2-dichloroethenyl dimethyl phosphate

>  <STRUCTURE_SMILES>
O=P(OC=C(Cl)Cl)(OC)OC

>  <STRUCTURE_Parent_SMILES>
O=P(OC=C(Cl)Cl)(OC)OC

>  <STRUCTURE_InChI>
InChI=1/C4H7Cl2O4P/c1-8-11(7,9-2)10-3-4(5)6/h3H,1-2H3

>  <STRUCTURE_InChIKey>
OEBRKCOSUFCWJD-UHFFFAOYAU

>  <StudyType>
Carcinogenicity

>  <Endpoint>
TD50; Tumor Target Sites

>  <Species>
rat; mouse

>  <ActivityOutcome_CPDBAS_Mutagenicity>
active

>  <TD50_Rat_mg>
4.16

>  <TD50_Rat_mmol>
0.0188

>  <ActivityScore_CPDBAS_Rat>
44

>  <TargetSites_Rat_Male>
hematopoietic system; pancreas

>  <TargetSites_Rat_Female>
no positive results

>  <ActivityOutcome_CPDBAS_Rat>
active

>  <TD50_Mouse_mg>
70.4

>  <TD50_Mouse_mmol>
0.319

>  <ActivityScore_CPDBAS_Mouse>
34

>  <TD50_Mouse_Note>
TD50 is harmonic mean of more than one positive test

>  <TargetSites_Mouse_Male>
stomach

>  <TargetSites_Mouse_Female>
stomach

>  <ActivityOutcome_CPDBAS_Mouse>
active

>  <ActivityOutcome_CPDBAS_SingleCellCall>
active

>  <ActivityOutcome_CPDBAS_MultiCellCall>
active

>  <ActivityOutcome_CPDBAS_MultiCellCall_Details>
multisite active; multisex active; multispecies active

>  <NTP_TechnicalReport>
TR 342

>  <ChemicalPage_URL>
http://potency.berkeley.edu/chempages/DICHLORVOS.html

$$$$



 20 21  0  0  0  0  0  0  0  0999 V2000
    0.0000   -5.2475    0.0000 O   0  0  0  0  0  0  0  0  0  0  0  0
    1.3138   -5.2475    0.0000 C   0  0  0  0  0  0  0  0  0  0  0  0
    1.3138   -3.9337    0.0000 C   0  0  0  0  0  0  0  0  0  0  0  0
    0.1731   -3.2807    0.0000 C   0  0  0  0  0  0  0  0  0  0  0  0
    0.1731   -1.9668    0.0000 C   0  0  0  0  0  0  0  0  0  0  0  0
    1.3138   -1.3138    0.0000 C   0  0  0  0  0  0  0  0  0  0  0  0
    2.4467   -1.9668    0.0000 C   0  0  0  0  0  0  0  0  0  0  0  0
    2.4467   -3.2807    0.0000 C   0  0  0  0  0  0  0  0  0  0  0  0
    1.3138    0.0000    0.0000 Cl  0  0  0  0  0  0  0  0  0  0  0  0
    3.0132   -5.2475    0.0000 C   0  0  0  0  0  0  0  0  0  0  0  0
    3.6740   -4.1067    0.0000 C   0  0  0  0  0  0  0  0  0  0  0  0
    4.9800   -4.1067    0.0000 C   0  0  0  0  0  0  0  0  0  0  0  0
    5.6409   -5.2475    0.0000 C   0  0  0  0  0  0  0  0  0  0  0  0
    4.9800   -6.3804    0.0000 C   0  0  0  0  0  0  0  0  0  0  0  0
    3.6740   -6.3804    0.0000 C   0  0  0  0  0  0  0  0  0  0  0  0
    6.9468   -5.2475    0.0000 Cl  0  0  0  0  0  0  0  0  0  0  0  0
    1.3138   -6.5535    0.0000 C   0  0  0  0  0  0  0  0  0  0  0  0
    2.6198   -6.5535    0.0000 Cl  0  0  0  0  0  0  0  0  0  0  0  0
    1.3138   -7.8673    0.0000 Cl  0  0  0  0  0  0  0  0  0  0  0  0
    0.0000   -6.5535    0.0000 Cl  0  0  0  0  0  0  0  0  0  0  0  0
  1  2  1  0  0  0  0
  2  3  1  0  0  0  0
  2 10  1  0  0  0  0
  2 17  1  0  0  0  0
  3  4  2  0  0  0  0
  3  8  1  0  0  0  0
  4  5  1  0  0  0  0
  5  6  2  0  0  0  0
  6  7  1  0  0  0  0
  6  9  1  0  0  0  0
  7  8  2  0  0  0  0
 10 11  2  0  0  0  0
 10 15  1  0  0  0  0
 11 12  1  0  0  0  0
 12 13  2  0  0  0  0
 13 14  1  0  0  0  0
 13 16  1  0  0  0  0
 14 15  2  0  0  0  0
 17 18  1  0  0  0  0
 17 19  1  0  0  0  0
 17 20  1  0  0  0  0
M  END
>  <DSSTox_RID>
20450

>  <DSSTox_CID>
450

>  <DSSTox_Generic_SID>
20450

>  <DSSTox_FileID>
469_CPDBAS_v5d

>  <STRUCTURE_Formula>
C14H9Cl5O

>  <STRUCTURE_MolecularWeight>
370.4857

>  <STRUCTURE_ChemicalType>
defined organic

>  <STRUCTURE_TestedForm_DefinedOrganic>
parent

>  <STRUCTURE_Shown>
tested chemical

>  <TestSubstance_ChemicalName>
Dicofol

>  <TestSubstance_CASRN>
115-32-2

>  <TestSubstance_Description>
single chemical compound

>  <STRUCTURE_ChemicalName_IUPAC>
2,2,2-trichloro-1,1-bis(4-chlorophenyl)ethanol

>  <STRUCTURE_SMILES>
OC(C1=CC=C(C=C1)Cl)(C2=CC=C(C=C2)Cl)C(Cl)(Cl)Cl

>  <STRUCTURE_Parent_SMILES>
OC(C1=CC=C(C=C1)Cl)(C2=CC=C(C=C2)Cl)C(Cl)(Cl)Cl

>  <STRUCTURE_InChI>
InChI=1/C14H9Cl5O/c15-11-5-1-9(2-6-11)13(20,14(17,18)19)10-3-7-12(16)8-4-10/h1-8,20H

>  <STRUCTURE_InChIKey>
UOAMTSKGCBMZTC-UHFFFAOYAZ

>  <StudyType>
Carcinogenicity

>  <Endpoint>
TD50; Tumor Target Sites

>  <Species>
rat; mouse

>  <ActivityOutcome_CPDBAS_Mutagenicity>
inactive

>  <ActivityScore_CPDBAS_Rat>
0

>  <TD50_Rat_Note>
no positive results

>  <TargetSites_Rat_Male>
no positive results

>  <TargetSites_Rat_Female>
no positive results

>  <ActivityOutcome_CPDBAS_Rat>
inactive

>  <TD50_Mouse_mg>
32.9

>  <TD50_Mouse_mmol>
0.0888

>  <ActivityScore_CPDBAS_Mouse>
40

>  <TargetSites_Mouse_Male>
liver

>  <TargetSites_Mouse_Female>
no positive results

>  <ActivityOutcome_CPDBAS_Mouse>
active

>  <ActivityOutcome_CPDBAS_SingleCellCall>
active

>  <NTP_TechnicalReport>
TR 90

>  <ChemicalPage_URL>
http://potency.berkeley.edu/chempages/DICOFOL.html

$$$$



 16 17  0  0  0  0  0  0  0  0999 V2000
    4.6029   -0.6628    0.0000 S   0  0  0  0  0  0  0  0  0  0  0  0
    4.6029   -1.9977    0.0000 C   0  0  0  0  0  0  0  0  0  0  0  0
    5.7537   -2.6605    0.0000 N   0  0  0  0  0  0  0  0  0  0  0  0
    6.9044   -1.9977    0.0000 C   0  0  0  0  0  0  0  0  0  0  0  0
    6.9044   -0.6628    0.0000 C   0  0  0  0  0  0  0  0  0  0  0  0
    8.0551    0.0000    0.0000 C   0  0  0  0  0  0  0  0  0  0  0  0
    9.2059   -0.6628    0.0000 C   0  0  0  0  0  0  0  0  0  0  0  0
    9.2059   -1.9977    0.0000 C   0  0  0  0  0  0  0  0  0  0  0  0
    8.0551   -2.6605    0.0000 C   0  0  0  0  0  0  0  0  0  0  0  0
    3.4522   -2.6605    0.0000 N   0  0  0  0  0  0  0  0  0  0  0  0
    2.3015   -1.9977    0.0000 C   0  0  0  0  0  0  0  0  0  0  0  0
    1.1507   -2.6605    0.0000 C   0  0  0  0  0  0  0  0  0  0  0  0
    0.0000   -1.9977    0.0000 C   0  0  0  0  0  0  0  0  0  0  0  0
    0.0000   -0.6628    0.0000 C   0  0  0  0  0  0  0  0  0  0  0  0
    1.1507    0.0000    0.0000 C   0  0  0  0  0  0  0  0  0  0  0  0
    2.3015   -0.6628    0.0000 C   0  0  0  0  0  0  0  0  0  0  0  0
  1  2  2  0  0  0  0
  2  3  1  0  0  0  0
  2 10  1  0  0  0  0
  3  4  1  0  0  0  0
  4  5  1  0  0  0  0
  4  9  1  0  0  0  0
  5  6  1  0  0  0  0
  6  7  1  0  0  0  0
  7  8  1  0  0  0  0
  8  9  1  0  0  0  0
 10 11  1  0  0  0  0
 11 12  1  0  0  0  0
 11 16  1  0  0  0  0
 12 13  1  0  0  0  0
 13 14  1  0  0  0  0
 14 15  1  0  0  0  0
 15 16  1  0  0  0  0
M  END
>  <DSSTox_RID>
20451

>  <DSSTox_CID>
451

>  <DSSTox_Generic_SID>
20451

>  <DSSTox_FileID>
470_CPDBAS_v5d

>  <STRUCTURE_Formula>
C13H24N2S

>  <STRUCTURE_MolecularWeight>
240.4081

>  <STRUCTURE_ChemicalType>
defined organic

>  <STRUCTURE_TestedForm_DefinedOrganic>
parent

>  <STRUCTURE_Shown>
tested chemical

>  <TestSubstance_ChemicalName>
N,N'-Dicyclohexylthiourea

>  <TestSubstance_CASRN>
1212-29-9

>  <TestSubstance_Description>
single chemical compound

>  <STRUCTURE_ChemicalName_IUPAC>
1,3-dicyclohexylthiourea

>  <STRUCTURE_SMILES>
S=C(NC1CCCCC1)NC1CCCCC1

>  <STRUCTURE_Parent_SMILES>
S=C(NC1CCCCC1)NC1CCCCC1

>  <STRUCTURE_InChI>
InChI=1/C13H24N2S/c16-13(14-11-7-3-1-4-8-11)15-12-9-5-2-6-10-12/h11-12H,1-10H2,(H2,14,15,16)/f/h14-15H

>  <STRUCTURE_InChIKey>
KAJICSGLHKRDLN-VPQZEOPVCD

>  <StudyType>
Carcinogenicity

>  <Endpoint>
TD50; Tumor Target Sites

>  <Species>
rat; mouse

>  <ActivityOutcome_CPDBAS_Mutagenicity>
inactive

>  <ActivityScore_CPDBAS_Rat>
0

>  <TD50_Rat_Note>
no positive results

>  <TargetSites_Rat_Male>
no positive results

>  <TargetSites_Rat_Female>
no positive results

>  <ActivityOutcome_CPDBAS_Rat>
inactive

>  <ActivityScore_CPDBAS_Mouse>
0

>  <TD50_Mouse_Note>
no positive results

>  <TargetSites_Mouse_Male>
no positive results

>  <TargetSites_Mouse_Female>
no positive results

>  <ActivityOutcome_CPDBAS_Mouse>
inactive

>  <ActivityOutcome_CPDBAS_SingleCellCall>
inactive

>  <ActivityOutcome_CPDBAS_MultiCellCall>
inactive

>  <ActivityOutcome_CPDBAS_MultiCellCall_Details>
multisex inactive; multispecies inactive

>  <NTP_TechnicalReport>
TR 56

>  <ChemicalPage_URL>
http://potency.berkeley.edu/chempages/N,N'-DICYCLOHEXYLTHIOUREA.html

$$$$



 12 16  0  0  0  0  0  0  0  0999 V2000
    1.6166    1.4000    0.0000 C   0  0  0  0  0  0  0  0  0  0  0  0
    2.4249    2.8000    0.0000 C   0  0  3  0  0  0  0  0  0  0  0  0
    3.6373    2.1000    0.0000 C   0  0  3  0  0  0  0  0  0  0  0  0
    3.6373    0.7000    0.0000 C   0  0  3  0  0  0  0  0  0  0  0  0
    2.4249    0.0000    0.0000 C   0  0  3  0  0  0  0  0  0  0  0  0
    1.2124    0.7000    0.0000 C   0  0  3  0  0  0  0  0  0  0  0  0
    1.2124    2.1000    0.0000 C   0  0  3  0  0  0  0  0  0  0  0  0
    0.0000    1.4000    0.0000 O   0  0  0  0  0  0  0  0  0  0  0  0
    4.9688    0.2674    0.0000 C   0  0  0  0  0  0  0  0  0  0  0  0
    5.7917    1.4000    0.0000 C   0  0  3  0  0  0  0  0  0  0  0  0
    4.9688    2.5326    0.0000 C   0  0  3  0  0  0  0  0  0  0  0  0
    6.3611    2.6790    0.0000 O   0  0  0  0  0  0  0  0  0  0  0  0
  2  1  1  0  0  0  0
  5  1  1  0  0  0  0
  3  2  1  0  0  0  0
  7  2  1  0  0  0  0
  4  3  1  0  0  0  0
 11  3  1  0  0  0  0
  5  4  1  0  0  0  0
  9  4  1  0  0  0  0
  6  5  1  0  0  0  0
  7  6  1  0  0  0  0
  8  6  1  0  0  0  0
  8  7  1  0  0  0  0
 10  9  1  0  0  0  0
 11 10  1  0  0  0  0
 12 10  1  0  0  0  0
 12 11  1  0  0  0  0
M  END
>  <DSSTox_RID>
20452

>  <DSSTox_CID>
452

>  <DSSTox_Generic_SID>
20452

>  <DSSTox_FileID>
471_CPDBAS_v5d

>  <STRUCTURE_Formula>
C10H12O2

>  <STRUCTURE_MolecularWeight>
164.2036

>  <STRUCTURE_ChemicalType>
defined organic

>  <STRUCTURE_TestedForm_DefinedOrganic>
parent

>  <STRUCTURE_Shown>
tested chemical

>  <TestSubstance_ChemicalName>
Dicyclopentadiene dioxide

>  <TestSubstance_CASRN>
81-21-0

>  <TestSubstance_Description>
single chemical compound

>  <STRUCTURE_ChemicalName_IUPAC>
octahydro-1aH-2,4-methanoindeno[1,2-b:5,6-b']bisoxirene

>  <STRUCTURE_SMILES>
C13CC(C4C3O4)C2C1C5C(O5)C2

>  <STRUCTURE_Parent_SMILES>
C13CC(C4C3O4)C2C1C5C(O5)C2

>  <STRUCTURE_InChI>
InChI=1/C10H12O2/c1-4-3-2-6-10(11-6)7(3)5(1)9-8(4)12-9/h3-10H,1-2H2

>  <STRUCTURE_InChIKey>
BQQUFAMSJAKLNB-UHFFFAOYAZ

>  <StudyType>
Carcinogenicity

>  <Endpoint>
TD50; Tumor Target Sites

>  <Species>
rat; mouse

>  <ActivityScore_CPDBAS_Rat>
0

>  <TD50_Rat_Note>
no positive results

>  <TargetSites_Rat_Male>
no positive results

>  <ActivityOutcome_CPDBAS_Rat>
inactive

>  <ActivityScore_CPDBAS_Mouse>
0

>  <TD50_Mouse_Note>
no positive results

>  <TargetSites_Mouse_Male>
no positive results

>  <TargetSites_Mouse_Female>
no positive results

>  <ActivityOutcome_CPDBAS_Mouse>
inactive

>  <ActivityOutcome_CPDBAS_SingleCellCall>
inactive

>  <ActivityOutcome_CPDBAS_MultiCellCall>
inactive

>  <ActivityOutcome_CPDBAS_MultiCellCall_Details>
multisex inactive; multispecies inactive

>  <ChemicalPage_URL>
http://potency.berkeley.edu/chempages/DICYCLOPENTADIENE%20DIOXIDE.html

$$$$



 21 25  0  0  0  0  0  0  0  0999 V2000
    1.4023    2.7211    0.0000 C   0  0  2  0  0  0  0  0  0  0  0  0
    0.0000    2.7211    0.0000 O   0  0  0  0  0  0  0  0  0  0  0  0
    0.6845    1.5191    0.0000 C   0  0  2  0  0  0  0  0  0  0  0  0
    2.5709    2.4039    0.0000 C   0  0  2  0  0  0  0  0  0  0  0  0
    3.9064    2.6543    0.0000 C   0  0  2  0  0  0  0  0  0  0  0  0
    2.0534    1.2854    0.0000 C   0  0  2  0  0  0  0  0  0  0  0  0
    2.4039    0.0000    0.0000 C   0  0  0  0  0  0  0  0  0  0  0  0
    3.7728    1.5191    0.0000 C   0  0  2  0  0  0  0  0  0  0  0  0
    5.5424    3.4556    0.0000 C   0  0  1  0  0  0  0  0  0  0  0  0
    5.0249    2.1702    0.0000 C   0  0  1  0  0  0  0  0  0  0  0  0
    6.5106    1.4524    0.0000 C   0  0  0  0  0  0  0  0  0  0  0  0
    7.2285    2.6543    0.0000 C   0  0  0  0  0  0  0  0  0  0  0  0
    8.4805    2.9715    0.0000 Cl  0  0  0  0  0  0  0  0  0  0  0  0
    7.0281    0.2337    0.0000 Cl  0  0  0  0  0  0  0  0  0  0  0  0
    4.5407    0.8013    0.0000 Cl  0  0  0  0  0  0  0  0  0  0  0  0
    5.0249    4.8579    0.0000 C   0  0  0  0  0  0  0  0  0  0  0  0
    5.8596    5.7427    0.0000 Cl  0  0  0  0  0  0  0  0  0  0  0  0
    4.0566    5.6592    0.0000 Cl  0  0  0  0  0  0  0  0  0  0  0  0
    6.4605    4.4239    0.0000 Cl  0  0  0  0  0  0  0  0  0  0  0  0
    3.7728    0.1002    0.0000 H   0  0  0  0  0  0  0  0  0  0  0  0
    3.8897    3.9231    0.0000 H   0  0  0  0  0  0  0  0  0  0  0  0
  1  2  1  1  0  0  0
  3  1  1  0  0  0  0
  4  1  1  0  0  0  0
  3  2  1  1  0  0  0
  6  3  1  0  0  0  0
  5  4  1  0  0  0  0
  4  7  1  6  0  0  0
  9  5  1  0  0  0  0
  8  5  1  0  0  0  0
  5 21  1  6  0  0  0
  6  7  1  1  0  0  0
  8  6  1  0  0  0  0
 10  8  1  0  0  0  0
  8 20  1  6  0  0  0
 12  9  1  0  0  0  0
  9 16  1  6  0  0  0
 19  9  1  0  0  0  0
 11 10  1  0  0  0  0
 10 16  1  6  0  0  0
 15 10  1  0  0  0  0
 12 11  2  0  0  0  0
 14 11  1  0  0  0  0
 13 12  1  0  0  0  0
 17 16  1  0  0  0  0
 18 16  1  0  0  0  0
M  END
>  <DSSTox_RID>
20453

>  <DSSTox_CID>
453

>  <DSSTox_Generic_SID>
20453

>  <DSSTox_FileID>
472_CPDBAS_v5d

>  <STRUCTURE_Formula>
C12H8Cl6O

>  <STRUCTURE_MolecularWeight>
380.9093

>  <STRUCTURE_ChemicalType>
defined organic

>  <STRUCTURE_TestedForm_DefinedOrganic>
parent

>  <STRUCTURE_Shown>
tested chemical

>  <TestSubstance_ChemicalName>
Dieldrin

>  <TestSubstance_CASRN>
60-57-1

>  <TestSubstance_Description>
single chemical compound

>  <ChemicalNote>
stereochem

>  <STRUCTURE_ChemicalName_IUPAC>
3,4,5,6,9,9-hexachloro-1a,2,2a,3,6,6a,7,7a-octahydro-2,7:3,6-dimethanonaphtho[2,3-b]oxirene

>  <STRUCTURE_SMILES>
Cl\C2=C(/Cl)C3(Cl)C1C4CC(C1C2(Cl)C3(Cl)Cl)C5OC45

>  <STRUCTURE_Parent_SMILES>
Cl\C2=C(/Cl)C3(Cl)C1C4CC(C1C2(Cl)C3(Cl)Cl)C5OC45

>  <STRUCTURE_InChI>
InChI=1/C12H8Cl6O/c13-8-9(14)11(16)5-3-1-2(6-7(3)19-6)4(5)10(8,15)12(11,17)18/h2-7H,1H2

>  <STRUCTURE_InChIKey>
DFBKLUNHFCTMDC-UHFFFAOYAM

>  <StudyType>
Carcinogenicity

>  <Endpoint>
TD50; Tumor Target Sites

>  <Species>
rat; mouse; hamster

>  <ActivityOutcome_CPDBAS_Mutagenicity>
inactive

>  <ActivityScore_CPDBAS_Rat>
0

>  <TD50_Rat_Note>
no positive results

>  <TargetSites_Rat_Male>
no positive results

>  <TargetSites_Rat_Female>
no positive results

>  <ActivityOutcome_CPDBAS_Rat>
inactive

>  <TD50_Mouse_mg>
0.912

>  <TD50_Mouse_mmol>
0.00239

>  <ActivityScore_CPDBAS_Mouse>
58

>  <TD50_Mouse_Note>
TD50 is harmonic mean of more than one positive test; harmonic mean of TD50 includes a value for upper 99% confidence limit from study with 100% tumor incidence but no lifetable

>  <TargetSites_Mouse_Male>
liver

>  <TargetSites_Mouse_Female>
liver

>  <ActivityOutcome_CPDBAS_Mouse>
active

>  <ActivityScore_CPDBAS_Hamster>
0

>  <TD50_Hamster_Note>
no positive results

>  <TargetSites_Hamster_Male>
no positive results

>  <TargetSites_Hamster_Female>
no positive results

>  <ActivityOutcome_CPDBAS_Hamster>
inactive

>  <ActivityOutcome_CPDBAS_SingleCellCall>
active

>  <ActivityOutcome_CPDBAS_MultiCellCall>
active

>  <ActivityOutcome_CPDBAS_MultiCellCall_Details>
multisex active

>  <Note_CPDBAS>
same 2D structure of endrin [72-20-8]; TD50_Mouse_Note modified v5a

>  <NTP_TechnicalReport>
TR 21; TR 22; final call in CPDB differs due to additional data

>  <ChemicalPage_URL>
http://potency.berkeley.edu/chempages/DIELDRIN.html

$$$$



 19 24  0  0  0  0  0  0  0  0999 V2000
    7.6464   -1.4299    0.0000 O   0  0  0  0  0  0  0  0  0  0  0  0
    6.4230   -2.6380    0.0000 C   0  0  3  0  0  0  0  0  0  0  0  0
    5.7730   -1.5904    0.0000 C   0  0  3  0  0  0  0  0  0  0  0  0
    4.6719   -2.3169    0.0000 C   0  0  3  0  0  0  0  0  0  0  0  0
    4.7561   -1.2999    0.0000 C   0  0  3  0  0  0  0  0  0  0  0  0
    3.6167   -2.8521    0.0000 C   0  0  3  0  0  0  0  0  0  0  0  0
    3.2497   -1.8351    0.0000 C   0  0  3  0  0  0  0  0  0  0  0  0
    4.0985   -0.7799    0.0000 C   0  0  3  0  0  0  0  0  0  0  0  0
    2.3245   -2.4468    0.0000 C   0  0  3  0  0  0  0  0  0  0  0  0
    0.8487   -2.8368    0.0000 C   0  0  0  0  0  0  0  0  0  0  0  0
    2.6380   -1.6899    0.0000 C   0  0  3  0  0  0  0  0  0  0  0  0
    1.6287   -1.1852    0.0000 C   0  0  3  0  0  0  0  0  0  0  0  0
    2.1869   -0.4970    0.0000 C   0  0  3  0  0  0  0  0  0  0  0  0
    1.7587   -3.5862    0.0000 Cl  0  0  0  0  0  0  0  0  0  0  0  0
    0.0000   -2.4316    0.0000 Cl  0  0  0  0  0  0  0  0  0  0  0  0
    0.8487   -3.6550    0.0000 Cl  0  0  0  0  0  0  0  0  0  0  0  0
    0.2370   -0.6346    0.0000 Cl  0  0  0  0  0  0  0  0  0  0  0  0
    2.7680    0.0000    0.0000 Cl  0  0  0  0  0  0  0  0  0  0  0  0
    3.3797   -1.2234    0.0000 Cl  0  0  0  0  0  0  0  0  0  0  0  0
  1  2  1  0  0  0  0
  1  3  1  0  0  0  0
  2  3  1  0  0  0  0
  2  4  1  0  0  0  0
  3  5  1  0  0  0  0
  4  6  1  0  0  0  0
  4  8  1  0  0  0  0
  5  7  1  0  0  0  0
  5  8  1  0  0  0  0
  6  7  1  0  0  0  0
  6  9  1  0  0  0  0
  7 11  1  0  0  0  0
  8 12  1  0  0  0  0
  9 10  1  0  0  0  0
  9 12  1  0  0  0  0
  9 14  1  0  0  0  0
 10 11  1  0  0  0  0
 10 15  1  0  0  0  0
 10 16  1  0  0  0  0
 11 13  1  0  0  0  0
 11 19  1  0  0  0  0
 12 13  1  0  0  0  0
 12 17  1  0  0  0  0
 13 18  1  0  0  0  0
M  END
>  <DSSTox_RID>
20454

>  <DSSTox_CID>
454

>  <DSSTox_Generic_SID>
20454

>  <DSSTox_FileID>
473_CPDBAS_v5d

>  <STRUCTURE_Formula>
C12H8Cl6O

>  <STRUCTURE_MolecularWeight>
380.9093

>  <STRUCTURE_ChemicalType>
defined organic

>  <STRUCTURE_TestedForm_DefinedOrganic>
parent

>  <STRUCTURE_Shown>
tested chemical

>  <TestSubstance_ChemicalName>
Dieldrin, photo-

>  <TestSubstance_CASRN>
13366-73-9

>  <TestSubstance_Description>
single chemical compound

>  <ChemicalNote>
stereochem

>  <STRUCTURE_ChemicalName_IUPAC>
2a,3,3,4,5,5a-hexachlorodecahydro-1aH-2,4,6-(methanetriyl)cyclopenta[4,5]pentaleno[1,2-b]oxirene

>  <STRUCTURE_SMILES>
ClC6C4(Cl)C3C1C5C(C3C2OC12)C4(Cl)C(Cl)(Cl)C56Cl

>  <STRUCTURE_Parent_SMILES>
ClC6C4(Cl)C3C1C5C(C3C2OC12)C4(Cl)C(Cl)(Cl)C56Cl

>  <STRUCTURE_InChI>
InChI=1/C12H8Cl6O/c13-8-9(14)3-1-4-5(2(3)7-6(1)19-7)11(9,16)12(17,18)10(4,8)15/h1-8H

>  <STRUCTURE_InChIKey>
LOVDWMTZZYUFMA-UHFFFAOYAC

>  <StudyType>
Carcinogenicity

>  <Endpoint>
TD50; Tumor Target Sites

>  <Species>
rat; mouse

>  <ActivityOutcome_CPDBAS_Mutagenicity>
active

>  <ActivityScore_CPDBAS_Rat>
0

>  <TD50_Rat_Note>
no positive results

>  <TargetSites_Rat_Male>
no positive results

>  <TargetSites_Rat_Female>
no positive results

>  <ActivityOutcome_CPDBAS_Rat>
inactive

>  <ActivityScore_CPDBAS_Mouse>
0

>  <TD50_Mouse_Note>
no positive results

>  <TargetSites_Mouse_Male>
no positive results

>  <TargetSites_Mouse_Female>
no positive results

>  <ActivityOutcome_CPDBAS_Mouse>
inactive

>  <ActivityOutcome_CPDBAS_SingleCellCall>
inactive

>  <ActivityOutcome_CPDBAS_MultiCellCall>
inactive

>  <ActivityOutcome_CPDBAS_MultiCellCall_Details>
multisex inactive; multispecies inactive

>  <NTP_TechnicalReport>
TR 17

>  <ChemicalPage_URL>
http://potency.berkeley.edu/chempages/DIELDRIN,%20PHOTO-.html

$$$$



  6  7  0  0  0  0  0  0  0  0999 V2000
    1.1400   -0.6571    0.0000 C   0  0  3  0  0  0  0  0  0  0  0  0
    0.0000   -1.3324    0.0000 C   0  0  0  0  0  0  0  0  0  0  0  0
    0.0000    0.0000    0.0000 O   0  0  0  0  0  0  0  0  0  0  0  0
    2.4723   -0.6571    0.0000 C   0  0  3  0  0  0  0  0  0  0  0  0
    3.6304    0.0000    0.0000 C   0  0  0  0  0  0  0  0  0  0  0  0
    3.6304   -1.3324    0.0000 O   0  0  0  0  0  0  0  0  0  0  0  0
  1  2  1  0  0  0  0
  1  3  1  0  0  0  0
  1  4  1  0  0  0  0
  2  3  1  0  0  0  0
  4  5  1  0  0  0  0
  4  6  1  0  0  0  0
  5  6  1  0  0  0  0
M  END
>  <DSSTox_RID>
20455

>  <DSSTox_CID>
455

>  <DSSTox_Generic_SID>
20455

>  <DSSTox_FileID>
474_CPDBAS_v5d

>  <STRUCTURE_Formula>
C4H6O2

>  <STRUCTURE_MolecularWeight>
86.0892

>  <STRUCTURE_ChemicalType>
defined organic

>  <STRUCTURE_TestedForm_DefinedOrganic>
parent

>  <STRUCTURE_Shown>
tested chemical

>  <TestSubstance_ChemicalName>
d,l-Diepoxybutane

>  <TestSubstance_CASRN>
298-18-0

>  <TestSubstance_Description>
single chemical compound

>  <ChemicalNote>
racemic mixture of d- [30419-67-1] and l- [30031-64-2]

>  <STRUCTURE_ChemicalName_IUPAC>
2,2'-bioxirane

>  <STRUCTURE_SMILES>
C1OC1C2CO2

>  <STRUCTURE_Parent_SMILES>
C1OC1C2CO2

>  <STRUCTURE_InChI>
InChI=1/C4H6O2/c1-3(5-1)4-2-6-4/h3-4H,1-2H2

>  <STRUCTURE_InChIKey>
ZFIVKAOQEXOYFY-UHFFFAOYAG

>  <StudyType>
Carcinogenicity

>  <Endpoint>
TD50; Tumor Target Sites

>  <Species>
rat

>  <ActivityOutcome_CPDBAS_Mutagenicity>
active

>  <ActivityScore_CPDBAS_Rat>
0

>  <TD50_Rat_Note>
no positive results

>  <TargetSites_Rat_Female>
no positive results

>  <ActivityOutcome_CPDBAS_Rat>
inactive

>  <ActivityOutcome_CPDBAS_SingleCellCall>
inactive

>  <ChemicalPage_URL>
http://potency.berkeley.edu/chempages/D,L-DIEPOXYBUTANE.html

$$$$



 12 12  0  0  0  0  0  0  0  0999 V2000
    0.0000   -2.6628    0.0000 C   0  0  0  0  0  0  0  0  0  0  0  0
    0.6673   -3.8148    0.0000 C   0  0  0  0  0  0  0  0  0  0  0  0
    1.9955   -3.8148    0.0000 O   0  0  0  0  0  0  0  0  0  0  0  0
    2.6628   -2.6628    0.0000 P   0  0  0  0  0  0  0  0  0  0  0  0
    3.3238   -1.5108    0.0000 O   0  0  0  0  0  0  0  0  0  0  0  0
    3.8148   -3.3301    0.0000 C   0  0  0  0  0  0  0  0  0  0  0  0
    4.9668   -2.6628    0.0000 C   0  0  3  0  0  0  0  0  0  0  0  0
    5.6277   -1.5108    0.0000 C   0  0  0  0  0  0  0  0  0  0  0  0
    6.2950   -2.6628    0.0000 O   0  0  0  0  0  0  0  0  0  0  0  0
    1.5108   -1.9955    0.0000 O   0  0  0  0  0  0  0  0  0  0  0  0
    1.5108   -0.6673    0.0000 C   0  0  0  0  0  0  0  0  0  0  0  0
    2.6628    0.0000    0.0000 C   0  0  0  0  0  0  0  0  0  0  0  0
  1  2  1  0  0  0  0
  2  3  1  0  0  0  0
  3  4  1  0  0  0  0
  4  5  2  0  0  0  0
  4  6  1  0  0  0  0
  4 10  1  0  0  0  0
  6  7  1  0  0  0  0
  7  8  1  0  0  0  0
  7  9  1  0  0  0  0
  8  9  1  0  0  0  0
 10 11  1  0  0  0  0
 11 12  1  0  0  0  0
M  END
>  <DSSTox_RID>
20456

>  <DSSTox_CID>
456

>  <DSSTox_Generic_SID>
20456

>  <DSSTox_FileID>
475_CPDBAS_v5d

>  <STRUCTURE_Formula>
C7H15O4P

>  <STRUCTURE_MolecularWeight>
194.16686

>  <STRUCTURE_ChemicalType>
defined organic

>  <STRUCTURE_TestedForm_DefinedOrganic>
parent

>  <STRUCTURE_Shown>
tested chemical

>  <TestSubstance_ChemicalName>
Diethyl-beta,gamma-epoxypropylphosphonate

>  <TestSubstance_CASRN>
7316-37-2

>  <TestSubstance_Description>
single chemical compound

>  <STRUCTURE_ChemicalName_IUPAC>
diethyl (oxiran-2-ylmethyl)phosphonate

>  <STRUCTURE_SMILES>
CCOP(=O)(C[CH]1CO1)OCC

>  <STRUCTURE_Parent_SMILES>
CCOP(=O)(C[CH]1CO1)OCC

>  <STRUCTURE_InChI>
InChI=1/C7H15O4P/c1-3-10-12(8,11-4-2)6-7-5-9-7/h7H,3-6H2,1-2H3

>  <STRUCTURE_InChIKey>
FUKXIMRHLZJUCG-UHFFFAOYAQ

>  <StudyType>
Carcinogenicity

>  <Endpoint>
TD50; Tumor Target Sites

>  <Species>
mouse

>  <ActivityScore_CPDBAS_Mouse>
0

>  <TD50_Mouse_Note>
no positive results

>  <TargetSites_Mouse_Female>
no positive results

>  <ActivityOutcome_CPDBAS_Mouse>
inactive

>  <ActivityOutcome_CPDBAS_SingleCellCall>
inactive

>  <ChemicalPage_URL>
http://potency.berkeley.edu/chempages/DIETHYL-beta,gamma-EPOXYPROPYLPHOSPHONATE.html

$$$$



 20 21  0  0  0  0  0  0  0  0999 V2000
    5.3145   -3.4592    0.0000 N   0  0  0  0  0  0  0  0  0  0  0  0
    5.9848   -2.3101    0.0000 N   0  0  0  0  0  0  0  0  0  0  0  0
    7.3134   -2.3101    0.0000 C   0  0  0  0  0  0  0  0  0  0  0  0
    7.9837   -1.1491    0.0000 C   0  0  0  0  0  0  0  0  0  0  0  0
    9.3124   -1.1491    0.0000 C   0  0  0  0  0  0  0  0  0  0  0  0
    9.9707   -2.3101    0.0000 C   0  0  0  0  0  0  0  0  0  0  0  0
    9.3124   -3.4592    0.0000 C   0  0  0  0  0  0  0  0  0  0  0  0
    7.9837   -3.4592    0.0000 C   0  0  0  0  0  0  0  0  0  0  0  0
   11.2993   -2.3101    0.0000 N   0  0  0  0  0  0  0  0  0  0  0  0
   11.9696   -3.4592    0.0000 C   0  0  0  0  0  0  0  0  0  0  0  0
   11.9696   -1.1491    0.0000 C   0  0  0  0  0  0  0  0  0  0  0  0
    3.9859   -3.4592    0.0000 C   0  0  0  0  0  0  0  0  0  0  0  0
    3.3275   -4.6083    0.0000 C   0  0  0  0  0  0  0  0  0  0  0  0
    1.9989   -4.6083    0.0000 C   0  0  0  0  0  0  0  0  0  0  0  0
    1.3286   -3.4592    0.0000 N   0  3  0  0  0  0  0  0  0  0  0  0
    1.9989   -2.3101    0.0000 C   0  0  0  0  0  0  0  0  0  0  0  0
    3.3275   -2.3101    0.0000 C   0  0  0  0  0  0  0  0  0  0  0  0
    0.0000   -3.4592    0.0000 O   0  5  0  0  0  0  0  0  0  0  0  0
   11.2993   -4.6083    0.0000 C   0  0  0  0  0  0  0  0  0  0  0  0
   11.2993    0.0000    0.0000 C   0  0  0  0  0  0  0  0  0  0  0  0
  1  2  2  0  0  0  0
  1 12  1  0  0  0  0
  2  3  1  0  0  0  0
  3  4  2  0  0  0  0
  3  8  1  0  0  0  0
  4  5  1  0  0  0  0
  5  6  2  0  0  0  0
  6  7  1  0  0  0  0
  6  9  1  0  0  0  0
  7  8  2  0  0  0  0
  9 10  1  0  0  0  0
  9 11  1  0  0  0  0
 10 19  1  0  0  0  0
 11 20  1  0  0  0  0
 12 13  2  0  0  0  0
 12 17  1  0  0  0  0
 13 14  1  0  0  0  0
 14 15  2  0  0  0  0
 15 16  1  0  0  0  0
 15 18  1  0  0  0  0
 16 17  2  0  0  0  0
M  END
>  <DSSTox_RID>
20457

>  <DSSTox_CID>
457

>  <DSSTox_Generic_SID>
20457

>  <DSSTox_FileID>
476_CPDBAS_v5d

>  <STRUCTURE_Formula>
C15H18N4O

>  <STRUCTURE_MolecularWeight>
270.3296

>  <STRUCTURE_ChemicalType>
defined organic

>  <STRUCTURE_TestedForm_DefinedOrganic>
parent

>  <STRUCTURE_Shown>
tested chemical

>  <TestSubstance_ChemicalName>
N,N-Diethyl-4-(4'-[pyridyl-1'- oxide]azo)aniline

>  <TestSubstance_CASRN>
7347-49-1

>  <TestSubstance_Description>
single chemical compound

>  <ChemicalNote>
ammonium

>  <STRUCTURE_ChemicalName_IUPAC>
N,N-diethyl-4-[(E)-(1-oxidopyridin-4-yl)diazenyl]aniline

>  <STRUCTURE_SMILES>
[O-][N+](C=C2)=CC=C2/N=N/C1=CC=C(N(CC)CC)C=C1

>  <STRUCTURE_Parent_SMILES>
CCN(CC)c2ccc(/N=N/c1cc[n+]([O-])cc1)cc2

>  <STRUCTURE_InChI>
InChI=1/C15H18N4O/c1-3-18(4-2)15-7-5-13(6-8-15)16-17-14-9-11-19(20)12-10-14/h5-12H,3-4H2,1-2H3/b17-16+

>  <STRUCTURE_InChIKey>
KSSLUCNXTYSFDY-WUKNDPDIBG

>  <StudyType>
Carcinogenicity

>  <Endpoint>
TD50; Tumor Target Sites

>  <Species>
rat

>  <TD50_Rat_mg>
1.63

>  <TD50_Rat_mmol>
0.00603

>  <ActivityScore_CPDBAS_Rat>
49

>  <TD50_Rat_Note>
TD50 value is overestimated as upper 99% confidence limit from study with 100% tumor incidence but no lifetable; harmonic mean of TD50 includes a value for upper 99% confidence limit from study with 100% tumor incidence but no lifetable

>  <TargetSites_Rat_Male>
liver

>  <ActivityOutcome_CPDBAS_Rat>
active

>  <ActivityOutcome_CPDBAS_SingleCellCall>
active

>  <Note_CPDBAS>
TD50_Rat_Note modified v5a

>  <ChemicalPage_URL>
http://potency.berkeley.edu/chempages/N,N-DIETHYL-4-(4'-[PYRIDYL-1'-OXIDE]AZO)ANILINE.html

$$$$



 14 14  0  0  0  0  0  0  0  0999 V2000
    6.6497   -2.3074    0.0000 C   0  0  0  0  0  0  0  0  0  0  0  0
    5.9847   -1.1570    0.0000 C   0  0  0  0  0  0  0  0  0  0  0  0
    4.6548   -1.1570    0.0000 N   0  0  0  0  0  0  0  0  0  0  0  0
    3.9898    0.0000    0.0000 C   0  0  0  0  0  0  0  0  0  0  0  0
    2.6599    0.0000    0.0000 C   0  0  0  0  0  0  0  0  0  0  0  0
    3.9898   -2.3074    0.0000 C   0  0  0  0  0  0  0  0  0  0  0  0
    4.6548   -3.4578    0.0000 O   0  0  0  0  0  0  0  0  0  0  0  0
    2.6599   -2.3074    0.0000 C   0  0  0  0  0  0  0  0  0  0  0  0
    1.9949   -3.4578    0.0000 C   0  0  0  0  0  0  0  0  0  0  0  0
    0.6650   -3.4578    0.0000 C   0  0  0  0  0  0  0  0  0  0  0  0
    0.0000   -2.3074    0.0000 C   0  0  0  0  0  0  0  0  0  0  0  0
    0.6650   -1.1570    0.0000 C   0  0  0  0  0  0  0  0  0  0  0  0
    0.0000    0.0000    0.0000 C   0  0  0  0  0  0  0  0  0  0  0  0
    1.9949   -1.1570    0.0000 C   0  0  0  0  0  0  0  0  0  0  0  0
  1  2  1  0  0  0  0
  2  3  1  0  0  0  0
  3  4  1  0  0  0  0
  3  6  1  0  0  0  0
  4  5  1  0  0  0  0
  6  7  2  0  0  0  0
  6  8  1  0  0  0  0
  8  9  2  0  0  0  0
  8 14  1  0  0  0  0
  9 10  1  0  0  0  0
 10 11  2  0  0  0  0
 11 12  1  0  0  0  0
 12 13  1  0  0  0  0
 12 14  2  0  0  0  0
M  END
>  <DSSTox_RID>
40788

>  <DSSTox_CID>
1995

>  <DSSTox_Generic_SID>
21995

>  <DSSTox_FileID>
477_CPDBAS_v5d

>  <STRUCTURE_Formula>
C12H17NO

>  <STRUCTURE_MolecularWeight>
191.2695

>  <STRUCTURE_ChemicalType>
defined organic

>  <STRUCTURE_TestedForm_DefinedOrganic>
parent

>  <STRUCTURE_Shown>
tested chemical

>  <TestSubstance_ChemicalName>
N,N-Diethyl-m-toluamide

>  <TestSubstance_CASRN>
134-62-3

>  <TestSubstance_Description>
single chemical compound

>  <STRUCTURE_ChemicalName_IUPAC>
N,N-diethyl-3-methylbenzamide

>  <STRUCTURE_SMILES>
CCN(CC)C(=O)C1=CC=CC(C)=C1

>  <STRUCTURE_Parent_SMILES>
CCN(CC)C(=O)C1=CC=CC(C)=C1

>  <STRUCTURE_InChI>
InChI=1/C12H17NO/c1-4-13(5-2)12(14)11-8-6-7-10(3)9-11/h6-9H,4-5H2,1-3H3

>  <STRUCTURE_InChIKey>
MMOXZBCLCQITDF-UHFFFAOYAE

>  <StudyType>
Carcinogenicity

>  <Endpoint>
TD50; Tumor Target Sites

>  <Species>
rat; mouse

>  <ActivityOutcome_CPDBAS_Mutagenicity>
inactive

>  <ActivityScore_CPDBAS_Rat>
0

>  <TD50_Rat_Note>
no positive results

>  <TargetSites_Rat_Male>
no positive results

>  <TargetSites_Rat_Female>
no positive results

>  <ActivityOutcome_CPDBAS_Rat>
inactive

>  <ActivityScore_CPDBAS_Mouse>
0

>  <TD50_Mouse_Note>
no positive results

>  <TargetSites_Mouse_Male>
no positive results

>  <TargetSites_Mouse_Female>
no positive results

>  <ActivityOutcome_CPDBAS_Mouse>
inactive

>  <ActivityOutcome_CPDBAS_SingleCellCall>
inactive

>  <ActivityOutcome_CPDBAS_MultiCellCall>
inactive

>  <ActivityOutcome_CPDBAS_MultiCellCall_Details>
multisex inactive; multispecies inactive

>  <Note_CPDBAS>
Rat added v5a; Mouse added v5a; Mutagenicity_SAL_CPDB added v5a; chemical added v5a

>  <ChemicalPage_URL>
http://potency.berkeley.edu/chempages/N%2CN-DIETHYL-m-TOLUAMIDE.html

$$$$



 18 18  0  0  0  0  0  0  0  0999 V2000
    6.4226   -4.6073    0.0000 S   0  0  0  0  0  0  0  0  0  0  0  0
    5.7591   -3.4555    0.0000 P   0  0  0  0  0  0  0  0  0  0  0  0
    4.6073   -4.1189    0.0000 O   0  0  0  0  0  0  0  0  0  0  0  0
    3.4555   -3.4555    0.0000 C   0  0  0  0  0  0  0  0  0  0  0  0
    2.3036   -4.1189    0.0000 N   0  0  0  0  0  0  0  0  0  0  0  0
    1.1518   -3.4555    0.0000 C   0  0  0  0  0  0  0  0  0  0  0  0
    1.1518   -2.1286    0.0000 C   0  0  0  0  0  0  0  0  0  0  0  0
    2.3036   -1.4559    0.0000 C   0  0  0  0  0  0  0  0  0  0  0  0
    3.4555   -2.1286    0.0000 C   0  0  0  0  0  0  0  0  0  0  0  0
    4.6073   -1.4559    0.0000 Cl  0  0  0  0  0  0  0  0  0  0  0  0
    0.0000   -1.4559    0.0000 Cl  0  0  0  0  0  0  0  0  0  0  0  0
    0.0000   -4.1189    0.0000 Cl  0  0  0  0  0  0  0  0  0  0  0  0
    5.0957   -2.3036    0.0000 O   0  0  0  0  0  0  0  0  0  0  0  0
    5.7591   -1.1518    0.0000 C   0  0  0  0  0  0  0  0  0  0  0  0
    5.0957    0.0000    0.0000 C   0  0  0  0  0  0  0  0  0  0  0  0
    6.9109   -2.7920    0.0000 O   0  0  0  0  0  0  0  0  0  0  0  0
    8.0627   -3.4555    0.0000 C   0  0  0  0  0  0  0  0  0  0  0  0
    9.2146   -2.7920    0.0000 C   0  0  0  0  0  0  0  0  0  0  0  0
  1  2  2  0  0  0  0
  2  3  1  0  0  0  0
  2 13  1  0  0  0  0
  2 16  1  0  0  0  0
  3  4  1  0  0  0  0
  4  5  2  0  0  0  0
  4  9  1  0  0  0  0
  5  6  1  0  0  0  0
  6  7  2  0  0  0  0
  6 12  1  0  0  0  0
  7  8  1  0  0  0  0
  7 11  1  0  0  0  0
  8  9  2  0  0  0  0
  9 10  1  0  0  0  0
 13 14  1  0  0  0  0
 14 15  1  0  0  0  0
 16 17  1  0  0  0  0
 17 18  1  0  0  0  0
M  END
>  <DSSTox_RID>
20458

>  <DSSTox_CID>
458

>  <DSSTox_Generic_SID>
20458

>  <DSSTox_FileID>
478_CPDBAS_v5d

>  <STRUCTURE_Formula>
C9H11Cl3NO3PS

>  <STRUCTURE_MolecularWeight>
350.5863

>  <STRUCTURE_ChemicalType>
defined organic

>  <STRUCTURE_TestedForm_DefinedOrganic>
parent

>  <STRUCTURE_Shown>
tested chemical

>  <TestSubstance_ChemicalName>
O,O-Diethyl-o-(3,5,6-trichloro-2-pyridyl)phosphorothiolate

>  <TestSubstance_CASRN>
2921-88-2

>  <TestSubstance_Description>
single chemical compound

>  <STRUCTURE_ChemicalName_IUPAC>
O,O-diethyl O-(3,5,6-trichloropyridin-2-yl) thiophosphate

>  <STRUCTURE_SMILES>
S=P(OC1=NC(=C(C=C1Cl)Cl)Cl)(OCC)OCC

>  <STRUCTURE_Parent_SMILES>
S=P(OC1=NC(=C(C=C1Cl)Cl)Cl)(OCC)OCC

>  <STRUCTURE_InChI>
InChI=1/C9H11Cl3NO3PS/c1-3-14-17(18,15-4-2)16-9-7(11)5-6(10)8(12)13-9/h5H,3-4H2,1-2H3

>  <STRUCTURE_InChIKey>
SBPBAQFWLVIOKP-UHFFFAOYAG

>  <StudyType>
Carcinogenicity

>  <Endpoint>
TD50; Tumor Target Sites

>  <Species>
rat

>  <ActivityOutcome_CPDBAS_Mutagenicity>
inactive

>  <ActivityScore_CPDBAS_Rat>
0

>  <TD50_Rat_Note>
no positive results

>  <TargetSites_Rat_Male>
no positive results

>  <TargetSites_Rat_Female>
no positive results

>  <ActivityOutcome_CPDBAS_Rat>
inactive

>  <ActivityOutcome_CPDBAS_SingleCellCall>
inactive

>  <ActivityOutcome_CPDBAS_MultiCellCall>
inactive

>  <ActivityOutcome_CPDBAS_MultiCellCall_Details>
multisex inactive

>  <ChemicalPage_URL>
http://potency.berkeley.edu/chempages/O,O-DIETHYL-O-(3,5,6-TRICHLORO-2-PYRIDYL)PHOSPHORO.html

$$$$



  8  7  0  0  0  0  0  0  0  0999 V2000
    3.9901   -1.1531    0.0000 C   0  0  0  0  0  0  0  0  0  0  0  0
    2.6614   -1.1531    0.0000 C   0  0  0  0  0  0  0  0  0  0  0  0
    1.9951    0.0000    0.0000 O   0  0  0  0  0  0  0  0  0  0  0  0
    1.9951   -2.3023    0.0000 N   0  0  0  0  0  0  0  0  0  0  0  0
    2.6614   -3.4554    0.0000 C   0  0  0  0  0  0  0  0  0  0  0  0
    3.9901   -3.4554    0.0000 C   0  0  0  0  0  0  0  0  0  0  0  0
    0.6664   -2.3023    0.0000 C   0  0  0  0  0  0  0  0  0  0  0  0
    0.0000   -3.4554    0.0000 C   0  0  0  0  0  0  0  0  0  0  0  0
  1  2  1  0  0  0  0
  2  3  2  0  0  0  0
  2  4  1  0  0  0  0
  4  5  1  0  0  0  0
  4  7  1  0  0  0  0
  5  6  1  0  0  0  0
  7  8  1  0  0  0  0
M  END
>  <DSSTox_RID>
20459

>  <DSSTox_CID>
459

>  <DSSTox_Generic_SID>
20459

>  <DSSTox_FileID>
479_CPDBAS_v5d

>  <STRUCTURE_Formula>
C6H13NO

>  <STRUCTURE_MolecularWeight>
115.1748

>  <STRUCTURE_ChemicalType>
defined organic

>  <STRUCTURE_TestedForm_DefinedOrganic>
parent

>  <STRUCTURE_Shown>
tested chemical

>  <TestSubstance_ChemicalName>
Diethylacetamide

>  <TestSubstance_CASRN>
685-91-6

>  <TestSubstance_Description>
single chemical compound

>  <STRUCTURE_ChemicalName_IUPAC>
N,N-diethylacetamide

>  <STRUCTURE_SMILES>
CC(=O)N(CC)CC

>  <STRUCTURE_Parent_SMILES>
CC(=O)N(CC)CC

>  <STRUCTURE_InChI>
InChI=1/C6H13NO/c1-4-7(5-2)6(3)8/h4-5H2,1-3H3

>  <STRUCTURE_InChIKey>
AJFDBNQQDYLMJN-UHFFFAOYAQ

>  <StudyType>
Carcinogenicity

>  <Endpoint>
TD50; Tumor Target Sites

>  <Species>
rat

>  <TD50_Rat_mg>
8.85

>  <TD50_Rat_mmol>
0.0768

>  <ActivityScore_CPDBAS_Rat>
37

>  <TD50_Rat_Note>
no positive results are statistically significant

>  <TargetSites_Rat_Male>
kidney

>  <ActivityOutcome_CPDBAS_Rat>
active

>  <ActivityOutcome_CPDBAS_SingleCellCall>
active

>  <ChemicalPage_URL>
http://potency.berkeley.edu/chempages/DIETHYLACETAMIDE.html

$$$$



 11 10  0  0  0  0  0  0  0  0999 V2000
    1.1549   -1.3347    0.0000 C   0  0  0  0  0  0  0  0  0  0  0  0
    1.1549    0.0000    0.0000 O   0  0  0  0  0  0  0  0  0  0  0  0
    2.3098   -1.9917    0.0000 N   0  0  0  0  0  0  0  0  0  0  0  0
    0.0000   -1.9917    0.0000 N   0  0  0  0  0  0  0  0  0  0  0  0
    3.4578   -1.3347    0.0000 C   0  0  0  0  0  0  0  0  0  0  0  0
    3.4578    0.0000    0.0000 O   0  0  0  0  0  0  0  0  0  0  0  0
    4.6058   -1.9917    0.0000 C   0  0  0  0  0  0  0  0  0  0  0  0
    4.6058   -3.3264    0.0000 C   0  0  0  0  0  0  0  0  0  0  0  0
    5.7608   -3.9834    0.0000 C   0  0  0  0  0  0  0  0  0  0  0  0
    5.7608   -1.3278    0.0000 C   0  0  0  0  0  0  0  0  0  0  0  0
    6.9157   -1.9917    0.0000 C   0  0  0  0  0  0  0  0  0  0  0  0
  1  2  2  0  0  0  0
  1  3  1  0  0  0  0
  1  4  1  0  0  0  0
  3  5  1  0  0  0  0
  5  6  2  0  0  0  0
  5  7  1  0  0  0  0
  7  8  1  0  0  0  0
  7 10  1  0  0  0  0
  8  9  1  0  0  0  0
 10 11  1  0  0  0  0
M  END
>  <DSSTox_RID>
20460

>  <DSSTox_CID>
460

>  <DSSTox_Generic_SID>
20460

>  <DSSTox_FileID>
480_CPDBAS_v5d

>  <STRUCTURE_Formula>
C7H14N2O2

>  <STRUCTURE_MolecularWeight>
158.1998

>  <STRUCTURE_ChemicalType>
defined organic

>  <STRUCTURE_TestedForm_DefinedOrganic>
parent

>  <STRUCTURE_Shown>
tested chemical

>  <TestSubstance_ChemicalName>
Diethylacetylurea

>  <TestSubstance_CASRN>
2274-01-3

>  <TestSubstance_Description>
single chemical compound

>  <STRUCTURE_ChemicalName_IUPAC>
N-carbamoyl-2-ethylbutanamide

>  <STRUCTURE_SMILES>
O=C(N)NC(C(CC)CC)=O

>  <STRUCTURE_Parent_SMILES>
O=C(N)NC(C(CC)CC)=O

>  <STRUCTURE_InChI>
InChI=1/C7H14N2O2/c1-3-5(4-2)6(10)9-7(8)11/h5H,3-4H2,1-2H3,(H3,8,9,10,11)/f/h9H,8H2

>  <STRUCTURE_InChIKey>
JIOUJVPLJOQUFD-ZLUQDFOACZ

>  <StudyType>
Carcinogenicity

>  <Endpoint>
TD50; Tumor Target Sites

>  <Species>
rat

>  <ActivityScore_CPDBAS_Rat>
0

>  <TD50_Rat_Note>
no positive results

>  <TargetSites_Rat_Male>
no positive results

>  <ActivityOutcome_CPDBAS_Rat>
inactive

>  <ActivityOutcome_CPDBAS_SingleCellCall>
inactive

>  <Note_CPDBAS>
structure modified v5b; CASRN added v5b

>  <ChemicalPage_URL>
http://potency.berkeley.edu/chempages/DIETHYLACETYLUREA.html

$$$$



  7  6  0  0  0  0  0  0  0  0999 V2000
    0.0000   -0.6638    0.0000 O   0  0  0  0  0  0  0  0  0  0  0  0
    1.1548    0.0000    0.0000 C   0  0  0  0  0  0  0  0  0  0  0  0
    2.3027   -0.6638    0.0000 C   0  0  0  0  0  0  0  0  0  0  0  0
    3.4575    0.0000    0.0000 O   0  0  0  0  0  0  0  0  0  0  0  0
    4.6122   -0.6638    0.0000 C   0  0  0  0  0  0  0  0  0  0  0  0
    5.7601    0.0000    0.0000 C   0  0  0  0  0  0  0  0  0  0  0  0
    6.9149   -0.6638    0.0000 O   0  0  0  0  0  0  0  0  0  0  0  0
  1  2  1  0  0  0  0
  2  3  1  0  0  0  0
  3  4  1  0  0  0  0
  4  5  1  0  0  0  0
  5  6  1  0  0  0  0
  6  7  1  0  0  0  0
M  END
>  <DSSTox_RID>
20462

>  <DSSTox_CID>
462

>  <DSSTox_Generic_SID>
20462

>  <DSSTox_FileID>
482_CPDBAS_v5d

>  <STRUCTURE_Formula>
C4H10O3

>  <STRUCTURE_MolecularWeight>
106.1204

>  <STRUCTURE_ChemicalType>
defined organic

>  <STRUCTURE_TestedForm_DefinedOrganic>
parent

>  <STRUCTURE_Shown>
tested chemical

>  <TestSubstance_ChemicalName>
Diethylene glycol

>  <TestSubstance_CASRN>
111-46-6

>  <TestSubstance_Description>
single chemical compound

>  <STRUCTURE_ChemicalName_IUPAC>
2,2'-oxydiethanol

>  <STRUCTURE_SMILES>
OCCOCCO

>  <STRUCTURE_Parent_SMILES>
OCCOCCO

>  <STRUCTURE_InChI>
InChI=1/C4H10O3/c5-1-3-7-4-2-6/h5-6H,1-4H2

>  <STRUCTURE_InChIKey>
MTHSVFCYNBDYFN-UHFFFAOYAK

>  <StudyType>
Carcinogenicity

>  <Endpoint>
TD50; Tumor Target Sites

>  <Species>
rat

>  <ActivityOutcome_CPDBAS_Mutagenicity>
inactive

>  <TD50_Rat_mg>
1660

>  <TD50_Rat_mmol>
15.6

>  <ActivityScore_CPDBAS_Rat>
13

>  <TargetSites_Rat_Male>
urinary bladder

>  <TargetSites_Rat_Female>
no positive results

>  <ActivityOutcome_CPDBAS_Rat>
active

>  <ActivityOutcome_CPDBAS_SingleCellCall>
active

>  <Note_CPDBAS>
TargetSites_Rat modified v3a

>  <ChemicalPage_URL>
http://potency.berkeley.edu/chempages/DIETHYLENE%20GLYCOL.html

$$$$



  7  6  0  0  0  0  0  0  0  0999 V2000
    3.9928    0.0000    0.0000 C   0  0  0  0  0  0  0  0  0  0  0  0
    2.6632    0.0000    0.0000 C   0  0  0  0  0  0  0  0  0  0  0  0
    1.9964   -1.1499    0.0000 N   0  0  0  0  0  0  0  0  0  0  0  0
    2.6632   -2.3038    0.0000 C   0  0  0  0  0  0  0  0  0  0  0  0
    3.9928   -2.3038    0.0000 C   0  0  0  0  0  0  0  0  0  0  0  0
    0.6668   -1.1499    0.0000 C   0  0  0  0  0  0  0  0  0  0  0  0
    0.0000    0.0000    0.0000 O   0  0  0  0  0  0  0  0  0  0  0  0
  1  2  1  0  0  0  0
  2  3  1  0  0  0  0
  3  4  1  0  0  0  0
  3  6  1  0  0  0  0
  4  5  1  0  0  0  0
  6  7  2  0  0  0  0
M  END
>  <DSSTox_RID>
20463

>  <DSSTox_CID>
463

>  <DSSTox_Generic_SID>
20463

>  <DSSTox_FileID>
483_CPDBAS_v5d

>  <STRUCTURE_Formula>
C5H11NO

>  <STRUCTURE_MolecularWeight>
101.1469

>  <STRUCTURE_ChemicalType>
defined organic

>  <STRUCTURE_TestedForm_DefinedOrganic>
parent

>  <STRUCTURE_Shown>
tested chemical

>  <TestSubstance_ChemicalName>
Diethylformamide

>  <TestSubstance_CASRN>
617-84-5

>  <TestSubstance_Description>
single chemical compound

>  <STRUCTURE_ChemicalName_IUPAC>
N,N-diethylformamide

>  <STRUCTURE_SMILES>
CCN(CC)C=O

>  <STRUCTURE_Parent_SMILES>
CCN(CC)C=O

>  <STRUCTURE_InChI>
InChI=1/C5H11NO/c1-3-6(4-2)5-7/h5H,3-4H2,1-2H3

>  <STRUCTURE_InChIKey>
SUAKHGWARZSWIH-UHFFFAOYAT

>  <StudyType>
Carcinogenicity

>  <Endpoint>
TD50; Tumor Target Sites

>  <Species>
rat

>  <ActivityScore_CPDBAS_Rat>
0

>  <TD50_Rat_Note>
no positive results

>  <TargetSites_Rat_Male>
no positive results

>  <ActivityOutcome_CPDBAS_Rat>
inactive

>  <ActivityOutcome_CPDBAS_SingleCellCall>
inactive

>  <ChemicalPage_URL>
http://potency.berkeley.edu/chempages/DIETHYLFORMAMIDE.html

$$$$



 12 11  0  0  0  0  0  0  0  0999 V2000
    1.1545   -5.3201    0.0000 O   0  0  0  0  0  0  0  0  0  0  0  0
    1.1545   -3.9901    0.0000 C   0  0  0  0  0  0  0  0  0  0  0  0
    0.0000   -3.3251    0.0000 C   0  0  0  0  0  0  0  0  0  0  0  0
    0.0000   -1.9950    0.0000 C   0  0  0  0  0  0  0  0  0  0  0  0
    1.1491   -1.3300    0.0000 C   0  0  0  0  0  0  0  0  0  0  0  0
    1.1491    0.0000    0.0000 O   0  0  0  0  0  0  0  0  0  0  0  0
    2.3036   -1.9950    0.0000 O   0  0  0  0  0  0  0  0  0  0  0  0
    3.4527   -1.3300    0.0000 C   0  0  0  0  0  0  0  0  0  0  0  0
    4.6072   -1.9950    0.0000 C   0  0  0  0  0  0  0  0  0  0  0  0
    2.3036   -3.3251    0.0000 O   0  0  0  0  0  0  0  0  0  0  0  0
    3.4581   -3.9901    0.0000 C   0  0  0  0  0  0  0  0  0  0  0  0
    4.6072   -3.3251    0.0000 C   0  0  0  0  0  0  0  0  0  0  0  0
  1  2  2  0  0  0  0
  2  3  1  0  0  0  0
  2 10  1  0  0  0  0
  3  4  2  0  0  0  0
  4  5  1  0  0  0  0
  5  6  2  0  0  0  0
  5  7  1  0  0  0  0
  7  8  1  0  0  0  0
  8  9  1  0  0  0  0
 10 11  1  0  0  0  0
 11 12  1  0  0  0  0
M  END
>  <DSSTox_RID>
20464

>  <DSSTox_CID>
464

>  <DSSTox_Generic_SID>
20464

>  <DSSTox_FileID>
484_CPDBAS_v5d

>  <STRUCTURE_Formula>
C8H12O4

>  <STRUCTURE_MolecularWeight>
172.1804

>  <STRUCTURE_ChemicalType>
defined organic

>  <STRUCTURE_TestedForm_DefinedOrganic>
parent

>  <STRUCTURE_Shown>
tested chemical

>  <TestSubstance_ChemicalName>
Diethylmaleate

>  <TestSubstance_CASRN>
141-05-9

>  <TestSubstance_Description>
single chemical compound

>  <ChemicalNote>
stereochem

>  <STRUCTURE_ChemicalName_IUPAC>
diethyl (2Z)-but-2-enedioate

>  <STRUCTURE_SMILES>
O=C(/C=C\C(=O)OCC)OCC

>  <STRUCTURE_Parent_SMILES>
O=C(/C=C\C(=O)OCC)OCC

>  <STRUCTURE_InChI>
InChI=1/C8H12O4/c1-3-11-7(9)5-6-8(10)12-4-2/h5-6H,3-4H2,1-2H3/b6-5-

>  <STRUCTURE_InChIKey>
IEPRKVQEAMIZSS-WAYWQWQTBX

>  <StudyType>
Carcinogenicity

>  <Endpoint>
TD50; Tumor Target Sites

>  <Species>
rat

>  <ActivityScore_CPDBAS_Rat>
0

>  <TD50_Rat_Note>
no positive results

>  <TargetSites_Rat_Male>
no positive results

>  <ActivityOutcome_CPDBAS_Rat>
inactive

>  <ActivityOutcome_CPDBAS_SingleCellCall>
inactive

>  <ChemicalPage_URL>
http://potency.berkeley.edu/chempages/DIETHYLMALEATE.html

$$$$



 20 21  0  0  0  0  0  0  0  0999 V2000
    6.0553   -3.7463    0.0000 C   0  0  0  0  0  0  0  0  0  0  0  0
    5.3988   -2.6032    0.0000 C   0  0  0  0  0  0  0  0  0  0  0  0
    3.8482   -2.5919    0.0000 C   0  0  0  0  0  0  0  0  0  0  0  0
    3.1691   -3.7237    0.0000 C   0  0  0  0  0  0  0  0  0  0  0  0
    1.9807   -3.7011    0.0000 C   0  0  0  0  0  0  0  0  0  0  0  0
    1.3129   -2.5692    0.0000 C   0  0  0  0  0  0  0  0  0  0  0  0
    1.9581   -1.4261    0.0000 C   0  0  0  0  0  0  0  0  0  0  0  0
    3.2031   -1.4374    0.0000 C   0  0  0  0  0  0  0  0  0  0  0  0
    0.0000   -2.5806    0.0000 O   0  0  0  0  0  0  0  0  0  0  0  0
    5.9874   -1.1431    0.0000 C   0  0  0  0  0  0  0  0  0  0  0  0
    5.3309    0.0000    0.0000 C   0  0  0  0  0  0  0  0  0  0  0  0
    7.3682   -3.7463    0.0000 C   0  0  0  0  0  0  0  0  0  0  0  0
    8.0360   -2.6032    0.0000 C   0  0  0  0  0  0  0  0  0  0  0  0
    9.3489   -2.6145    0.0000 C   0  0  0  0  0  0  0  0  0  0  0  0
   10.0053   -3.7463    0.0000 C   0  0  0  0  0  0  0  0  0  0  0  0
    9.3376   -4.8895    0.0000 C   0  0  0  0  0  0  0  0  0  0  0  0
    8.0246   -4.8895    0.0000 C   0  0  0  0  0  0  0  0  0  0  0  0
   11.3183   -3.7577    0.0000 O   0  0  0  0  0  0  0  0  0  0  0  0
    5.3988   -4.8782    0.0000 C   0  0  0  0  0  0  0  0  0  0  0  0
    6.0553   -6.0213    0.0000 C   0  0  0  0  0  0  0  0  0  0  0  0
  1  2  2  0  0  0  0
  1 12  1  0  0  0  0
  1 19  1  0  0  0  0
  2  3  1  0  0  0  0
  2 10  1  0  0  0  0
  3  4  1  0  0  0  0
  3  8  2  0  0  0  0
  4  5  2  0  0  0  0
  5  6  1  0  0  0  0
  6  7  2  0  0  0  0
  6  9  1  0  0  0  0
  7  8  1  0  0  0  0
 10 11  1  0  0  0  0
 12 13  2  0  0  0  0
 12 17  1  0  0  0  0
 13 14  1  0  0  0  0
 14 15  2  0  0  0  0
 15 16  1  0  0  0  0
 15 18  1  0  0  0  0
 16 17  2  0  0  0  0
 19 20  1  0  0  0  0
M  END
>  <DSSTox_RID>
20465

>  <DSSTox_CID>
465

>  <DSSTox_Generic_SID>
20465

>  <DSSTox_FileID>
485_CPDBAS_v5d

>  <STRUCTURE_Formula>
C18H20O2

>  <STRUCTURE_MolecularWeight>
268.3502

>  <STRUCTURE_ChemicalType>
defined organic

>  <STRUCTURE_TestedForm_DefinedOrganic>
parent

>  <STRUCTURE_Shown>
tested chemical

>  <TestSubstance_ChemicalName>
Diethylstilbestrol

>  <TestSubstance_CASRN>
56-53-1

>  <TestSubstance_Description>
single chemical compound

>  <ChemicalNote>
stereochem

>  <STRUCTURE_ChemicalName_IUPAC>
4,4'-(3E)-hex-3-ene-3,4-diyldiphenol

>  <STRUCTURE_SMILES>
OC2=CC=C(C=C2)/C(CC)=C(CC)/C1=CC=C(O)C=C1

>  <STRUCTURE_Parent_SMILES>
OC2=CC=C(C=C2)/C(CC)=C(CC)/C1=CC=C(O)C=C1

>  <STRUCTURE_InChI>
InChI=1/C18H20O2/c1-3-17(13-5-9-15(19)10-6-13)18(4-2)14-7-11-16(20)12-8-14/h5-12,19-20H,3-4H2,1-2H3/b18-17+

>  <STRUCTURE_InChIKey>
RGLYKWWBQGJZGM-ISLYRVAYBW

>  <StudyType>
Carcinogenicity

>  <Endpoint>
TD50; Tumor Target Sites

>  <Species>
rat; mouse

>  <ActivityOutcome_CPDBAS_Mutagenicity>
inactive

>  <TD50_Rat_mg>
0.223

>  <TD50_Rat_mmol>
0.000831

>  <ActivityScore_CPDBAS_Rat>
58

>  <TD50_Rat_Note>
TD50 is harmonic mean of more than one positive test; greater than ten-fold variation among TD50 values for positive results

>  <TargetSites_Rat_Male>
adrenal gland; pituitary gland

>  <TargetSites_Rat_Female>
liver; pituitary gland

>  <ActivityOutcome_CPDBAS_Rat>
active

>  <TD50_Mouse_mg>
0.0391

>  <TD50_Mouse_mmol>
0.000146

>  <ActivityScore_CPDBAS_Mouse>
72

>  <TD50_Mouse_Note>
TD50 is harmonic mean of more than one positive test

>  <TargetSites_Mouse_Male>
mammary gland; pituitary gland; testes; thyroid gland

>  <TargetSites_Mouse_Female>
mammary gland; ovary; pituitary gland; thyroid gland; uterus

>  <ActivityOutcome_CPDBAS_Mouse>
active

>  <ActivityOutcome_CPDBAS_SingleCellCall>
active

>  <ActivityOutcome_CPDBAS_MultiCellCall>
active

>  <ActivityOutcome_CPDBAS_MultiCellCall_Details>
multisite active; multisex active; multispecies active

>  <Note_CPDBAS>
TD50_Mouse modified v2a

>  <ChemicalPage_URL>
http://potency.berkeley.edu/chempages/DIETHYLSTILBESTROL.html

$$$$



  8  7  0  0  0  0  0  0  0  0999 V2000
    3.4577    0.0000    0.0000 S   0  0  0  0  0  0  0  0  0  0  0  0
    3.4577   -1.3312    0.0000 C   0  0  0  0  0  0  0  0  0  0  0  0
    4.6103   -1.9939    0.0000 N   0  0  0  0  0  0  0  0  0  0  0  0
    5.7628   -1.3312    0.0000 C   0  0  0  0  0  0  0  0  0  0  0  0
    5.7628    0.0000    0.0000 C   0  0  0  0  0  0  0  0  0  0  0  0
    2.3051   -1.9939    0.0000 N   0  0  0  0  0  0  0  0  0  0  0  0
    1.1526   -1.3312    0.0000 C   0  0  0  0  0  0  0  0  0  0  0  0
    0.0000   -1.9939    0.0000 C   0  0  0  0  0  0  0  0  0  0  0  0
  1  2  2  0  0  0  0
  2  3  1  0  0  0  0
  2  6  1  0  0  0  0
  3  4  1  0  0  0  0
  4  5  1  0  0  0  0
  6  7  1  0  0  0  0
  7  8  1  0  0  0  0
M  END
>  <DSSTox_RID>
20466

>  <DSSTox_CID>
466

>  <DSSTox_Generic_SID>
20466

>  <DSSTox_FileID>
486_CPDBAS_v5d

>  <STRUCTURE_Formula>
C5H12N2S

>  <STRUCTURE_MolecularWeight>
132.2272

>  <STRUCTURE_ChemicalType>
defined organic

>  <STRUCTURE_TestedForm_DefinedOrganic>
parent

>  <STRUCTURE_Shown>
tested chemical

>  <TestSubstance_ChemicalName>
N,N'-Diethylthiourea

>  <TestSubstance_CASRN>
105-55-5

>  <TestSubstance_Description>
single chemical compound

>  <STRUCTURE_ChemicalName_IUPAC>
1,3-diethylthiourea

>  <STRUCTURE_SMILES>
S=C(NCC)NCC

>  <STRUCTURE_Parent_SMILES>
S=C(NCC)NCC

>  <STRUCTURE_InChI>
InChI=1/C5H12N2S/c1-3-6-5(8)7-4-2/h3-4H2,1-2H3,(H2,6,7,8)/f/h6-7H

>  <STRUCTURE_InChIKey>
FLVIGYVXZHLUHP-ZDKSUBDRCA

>  <StudyType>
Carcinogenicity

>  <Endpoint>
TD50; Tumor Target Sites

>  <Species>
rat; mouse

>  <ActivityOutcome_CPDBAS_Mutagenicity>
inactive

>  <TD50_Rat_mg>
24

>  <TD50_Rat_mmol>
0.182

>  <ActivityScore_CPDBAS_Rat>
33

>  <TD50_Rat_Note>
TD50 is harmonic mean of more than one positive test

>  <TargetSites_Rat_Male>
thyroid gland

>  <TargetSites_Rat_Female>
thyroid gland

>  <ActivityOutcome_CPDBAS_Rat>
active

>  <ActivityScore_CPDBAS_Mouse>
0

>  <TD50_Mouse_Note>
no positive results

>  <TargetSites_Mouse_Male>
no positive results

>  <TargetSites_Mouse_Female>
no positive results

>  <ActivityOutcome_CPDBAS_Mouse>
inactive

>  <ActivityOutcome_CPDBAS_SingleCellCall>
active

>  <ActivityOutcome_CPDBAS_MultiCellCall>
active

>  <ActivityOutcome_CPDBAS_MultiCellCall_Details>
multisex active

>  <NTP_TechnicalReport>
TR 149

>  <ChemicalPage_URL>
http://potency.berkeley.edu/chempages/N,N'-DIETHYLTHIOUREA.html

$$$$



 12 11  0  0  0  0  0  0  0  0999 V2000
    2.9723   -3.4561    0.0000 N   0  0  0  0  0  0  0  0  0  0  0  0
    2.3018   -2.3018    0.0000 C   0  0  3  0  0  0  0  0  0  0  0  0
    3.4561   -1.6382    0.0000 C   0  0  0  0  0  0  0  0  0  0  0  0
    4.6104   -2.3018    0.0000 C   0  0  0  0  0  0  0  0  0  0  0  0
    5.7579   -1.6382    0.0000 C   0  0  0  0  0  0  0  0  0  0  0  0
    6.9122   -2.3018    0.0000 N   0  0  0  0  0  0  0  0  0  0  0  0
    1.1543   -2.9723    0.0000 C   0  0  0  0  0  0  0  0  0  0  0  0
    1.1543   -4.2994    0.0000 O   0  0  0  0  0  0  0  0  0  0  0  0
    0.0000   -2.3018    0.0000 O   0  0  0  0  0  0  0  0  0  0  0  0
    1.6382   -1.1543    0.0000 C   0  0  0  0  0  0  0  0  0  0  0  0
    0.3110   -1.1543    0.0000 F   0  0  0  0  0  0  0  0  0  0  0  0
    2.3018    0.0000    0.0000 F   0  0  0  0  0  0  0  0  0  0  0  0
  1  2  1  0  0  0  0
  2  3  1  0  0  0  0
  2  7  1  0  0  0  0
  2 10  1  0  0  0  0
  3  4  1  0  0  0  0
  4  5  1  0  0  0  0
  5  6  1  0  0  0  0
  7  8  2  0  0  0  0
  7  9  1  0  0  0  0
 10 11  1  0  0  0  0
 10 12  1  0  0  0  0
M  END
>  <DSSTox_RID>
20467

>  <DSSTox_CID>
467

>  <DSSTox_Generic_SID>
20467

>  <DSSTox_FileID>
487_CPDBAS_v5d

>  <STRUCTURE_Formula>
C6H12F2N2O2

>  <STRUCTURE_MolecularWeight>
182.1698

>  <STRUCTURE_ChemicalType>
defined organic

>  <STRUCTURE_TestedForm_DefinedOrganic>
parent

>  <STRUCTURE_Shown>
tested chemical

>  <TestSubstance_ChemicalName>
2-(Difluoromethyl)-dl-ornithine

>  <TestSubstance_CASRN>
70052-12-9

>  <TestSubstance_Description>
single chemical compound

>  <STRUCTURE_ChemicalName_IUPAC>
2-(difluoromethyl)ornithine

>  <STRUCTURE_SMILES>
NC(CCCN)(C(=O)O)C(F)F

>  <STRUCTURE_Parent_SMILES>
NC(CCCN)(C(=O)O)C(F)F

>  <STRUCTURE_InChI>
InChI=1/C6H12F2N2O2/c7-4(8)6(10,5(11)12)2-1-3-9/h4H,1-3,9-10H2,(H,11,12)/f/h11H

>  <STRUCTURE_InChIKey>
VLCYCQAOQCDTCN-WXRBYKJCCY

>  <StudyType>
Carcinogenicity

>  <Endpoint>
TD50; Tumor Target Sites

>  <Species>
rat

>  <ActivityScore_CPDBAS_Rat>
0

>  <TD50_Rat_Note>
no positive results

>  <TargetSites_Rat_Male>
no positive results

>  <TargetSites_Rat_Female>
no positive results

>  <ActivityOutcome_CPDBAS_Rat>
inactive

>  <ActivityOutcome_CPDBAS_SingleCellCall>
inactive

>  <ActivityOutcome_CPDBAS_MultiCellCall>
inactive

>  <ActivityOutcome_CPDBAS_MultiCellCall_Details>
multisex inactive

>  <ChemicalPage_URL>
http://potency.berkeley.edu/chempages/2-(DIFLUOROMETHYL)-DL-ORNITHINE.html

$$$$



  6  5  0  0  0  0  0  0  0  0999 V2000
    0.0000   -0.6630    0.0000 O   0  0  0  0  0  0  0  0  0  0  0  0
    1.1530    0.0000    0.0000 C   0  0  0  0  0  0  0  0  0  0  0  0
    2.3060   -0.6630    0.0000 N   0  0  0  0  0  0  0  0  0  0  0  0
    3.4590    0.0000    0.0000 N   0  0  0  0  0  0  0  0  0  0  0  0
    4.6119   -0.6630    0.0000 C   0  0  0  0  0  0  0  0  0  0  0  0
    5.7649    0.0000    0.0000 O   0  0  0  0  0  0  0  0  0  0  0  0
  1  2  2  0  0  0  0
  2  3  1  0  0  0  0
  3  4  1  0  0  0  0
  4  5  1  0  0  0  0
  5  6  2  0  0  0  0
M  END
>  <DSSTox_RID>
20468

>  <DSSTox_CID>
468

>  <DSSTox_Generic_SID>
20468

>  <DSSTox_FileID>
488_CPDBAS_v5d

>  <STRUCTURE_Formula>
C2H4N2O2

>  <STRUCTURE_MolecularWeight>
88.0658

>  <STRUCTURE_ChemicalType>
defined organic

>  <STRUCTURE_TestedForm_DefinedOrganic>
parent

>  <STRUCTURE_Shown>
tested chemical

>  <TestSubstance_ChemicalName>
1,2-Diformylhydrazine

>  <TestSubstance_CASRN>
628-36-4

>  <TestSubstance_Description>
single chemical compound

>  <STRUCTURE_ChemicalName_IUPAC>
N'-formylformic hydrazide

>  <STRUCTURE_SMILES>
O=CNNC=O

>  <STRUCTURE_Parent_SMILES>
O=CNNC=O

>  <STRUCTURE_InChI>
InChI=1/C2H4N2O2/c5-1-3-4-2-6/h1-2H,(H,3,5)(H,4,6)/f/h3-4H

>  <STRUCTURE_InChIKey>
POVXOWVFLAAVBH-ICLDPWEWCF

>  <StudyType>
Carcinogenicity

>  <Endpoint>
TD50; Tumor Target Sites

>  <Species>
mouse

>  <TD50_Mouse_mg>
668

>  <TD50_Mouse_mmol>
7.59

>  <ActivityScore_CPDBAS_Mouse>
18

>  <TD50_Mouse_Note>
TD50 is harmonic mean of more than one positive test

>  <TargetSites_Mouse_Male>
lung

>  <TargetSites_Mouse_Female>
lung

>  <ActivityOutcome_CPDBAS_Mouse>
active

>  <ActivityOutcome_CPDBAS_SingleCellCall>
active

>  <ActivityOutcome_CPDBAS_MultiCellCall>
active

>  <ActivityOutcome_CPDBAS_MultiCellCall_Details>
multisex active

>  <ChemicalPage_URL>
http://potency.berkeley.edu/chempages/1,2-DIFORMYLHYDRAZINE.html

$$$$



 20 23  0  0  0  0  0  0  0  0999 V2000
    3.4551    0.0000    0.0000 O   0  0  0  0  0  0  0  0  0  0  0  0
    3.4551   -1.3268    0.0000 C   0  0  0  0  0  0  0  0  0  0  0  0
    4.6068   -1.9902    0.0000 N   0  0  0  0  0  0  0  0  0  0  0  0
    5.7585   -1.3268    0.0000 C   0  0  0  0  0  0  0  0  0  0  0  0
    6.9103   -1.9902    0.0000 C   0  0  0  0  0  0  0  0  0  0  0  0
    8.0620   -1.3268    0.0000 C   0  0  0  0  0  0  0  0  0  0  0  0
    9.2137   -1.9902    0.0000 C   0  0  0  0  0  0  0  0  0  0  0  0
    9.2137   -3.3169    0.0000 C   0  0  0  0  0  0  0  0  0  0  0  0
    8.0620   -3.9895    0.0000 C   0  0  0  0  0  0  0  0  0  0  0  0
    6.9103   -3.3169    0.0000 C   0  0  0  0  0  0  0  0  0  0  0  0
    5.7585   -3.9895    0.0000 C   0  0  0  0  0  0  0  0  0  0  0  0
    5.7585   -5.3163    0.0000 O   0  0  0  0  0  0  0  0  0  0  0  0
    4.6068   -3.3169    0.0000 N   0  0  0  0  0  0  0  0  0  0  0  0
    3.4551   -3.9895    0.0000 C   0  0  0  0  0  0  0  0  0  0  0  0
    2.3034   -3.3169    0.0000 C   0  0  0  0  0  0  0  0  0  0  0  0
    1.1517   -3.9895    0.0000 C   0  0  0  0  0  0  0  0  0  0  0  0
    0.0000   -3.3169    0.0000 C   0  0  0  0  0  0  0  0  0  0  0  0
    0.0000   -1.9902    0.0000 C   0  0  0  0  0  0  0  0  0  0  0  0
    1.1517   -1.3268    0.0000 C   0  0  0  0  0  0  0  0  0  0  0  0
    2.3034   -1.9902    0.0000 C   0  0  0  0  0  0  0  0  0  0  0  0
  1  2  2  0  0  0  0
  2  3  1  0  0  0  0
  2 20  1  0  0  0  0
  3  4  1  0  0  0  0
  3 13  1  0  0  0  0
  4  5  1  0  0  0  0
  5  6  2  0  0  0  0
  5 10  1  0  0  0  0
  6  7  1  0  0  0  0
  7  8  2  0  0  0  0
  8  9  1  0  0  0  0
  9 10  2  0  0  0  0
 10 11  1  0  0  0  0
 11 12  2  0  0  0  0
 11 13  1  0  0  0  0
 13 14  1  0  0  0  0
 14 15  1  0  0  0  0
 15 16  1  0  0  0  0
 15 20  2  0  0  0  0
 16 17  2  0  0  0  0
 17 18  1  0  0  0  0
 18 19  2  0  0  0  0
 19 20  1  0  0  0  0
M  END
>  <DSSTox_RID>
20469

>  <DSSTox_CID>
469

>  <DSSTox_Generic_SID>
20469

>  <DSSTox_FileID>
489_CPDBAS_v5d

>  <STRUCTURE_Formula>
C16H12N2O2

>  <STRUCTURE_MolecularWeight>
264.283

>  <STRUCTURE_ChemicalType>
defined organic

>  <STRUCTURE_TestedForm_DefinedOrganic>
parent

>  <STRUCTURE_Shown>
tested chemical

>  <TestSubstance_ChemicalName>
Diftalone

>  <TestSubstance_CASRN>
21626-89-1

>  <TestSubstance_Description>
single chemical compound

>  <STRUCTURE_ChemicalName_IUPAC>
phthalazino[2,3-b]phthalazine-5,12(7H,14H)-dione

>  <STRUCTURE_SMILES>
O=C1N2CC3=CC=CC=C3C(=O)N2CC4C=CC=CC1=4

>  <STRUCTURE_Parent_SMILES>
O=C1N2CC3=CC=CC=C3C(=O)N2CC4C=CC=CC1=4

>  <STRUCTURE_InChI>
InChI=1/C16H12N2O2/c19-15-13-7-3-1-5-11(13)9-17-16(20)14-8-4-2-6-12(14)10-18(15)17/h1-8H,9-10H2

>  <STRUCTURE_InChIKey>
CXSJGNHRBWJXEA-UHFFFAOYAR

>  <StudyType>
Carcinogenicity

>  <Endpoint>
TD50; Tumor Target Sites

>  <Species>
mouse

>  <TD50_Mouse_mg>
865

>  <TD50_Mouse_mmol>
3.27

>  <ActivityScore_CPDBAS_Mouse>
22

>  <TD50_Mouse_Note>
TD50 is harmonic mean of more than one positive test

>  <TargetSites_Mouse_Male>
vascular system

>  <TargetSites_Mouse_Female>
liver; vascular system

>  <ActivityOutcome_CPDBAS_Mouse>
active

>  <ActivityOutcome_CPDBAS_SingleCellCall>
active

>  <ActivityOutcome_CPDBAS_MultiCellCall>
active

>  <ActivityOutcome_CPDBAS_MultiCellCall_Details>
multisite active; multisex active

>  <ChemicalPage_URL>
http://potency.berkeley.edu/chempages/DIFTALONE.html

$$$$



 16 18  0  0  0  0  0  0  0  0999 V2000
    5.9373   -2.6599    0.0000 C   0  0  0  0  0  0  0  0  0  0  0  0
    4.7855   -1.9949    0.0000 C   0  0  0  0  0  0  0  0  0  0  0  0
    4.7855   -0.6650    0.0000 C   0  0  0  0  0  0  0  0  0  0  0  0
    5.9373    0.0000    0.0000 C   0  0  0  0  0  0  0  0  0  0  0  0
    7.0892   -0.6650    0.0000 C   0  0  0  0  0  0  0  0  0  0  0  0
    7.0892   -1.9949    0.0000 C   0  0  0  0  0  0  0  0  0  0  0  0
    8.2410   -2.6599    0.0000 O   0  0  0  0  0  0  0  0  0  0  0  0
    9.3928   -1.9949    0.0000 C   0  0  0  0  0  0  0  0  0  0  0  0
   10.5447   -2.6599    0.0000 C   0  0  3  0  0  0  0  0  0  0  0  0
   11.8746   -2.6599    0.0000 C   0  0  0  0  0  0  0  0  0  0  0  0
   11.2097   -3.8118    0.0000 O   0  0  0  0  0  0  0  0  0  0  0  0
    3.6336   -2.6599    0.0000 O   0  0  0  0  0  0  0  0  0  0  0  0
    2.4818   -1.9949    0.0000 C   0  0  0  0  0  0  0  0  0  0  0  0
    1.3300   -2.6599    0.0000 C   0  0  3  0  0  0  0  0  0  0  0  0
    0.6650   -3.8118    0.0000 C   0  0  0  0  0  0  0  0  0  0  0  0
    0.0000   -2.6599    0.0000 O   0  0  0  0  0  0  0  0  0  0  0  0
  1  2  2  0  0  0  0
  1  6  1  0  0  0  0
  2  3  1  0  0  0  0
  2 12  1  0  0  0  0
  3  4  2  0  0  0  0
  4  5  1  0  0  0  0
  5  6  2  0  0  0  0
  6  7  1  0  0  0  0
  7  8  1  0  0  0  0
  8  9  1  0  0  0  0
  9 10  1  0  0  0  0
  9 11  1  0  0  0  0
 10 11  1  0  0  0  0
 12 13  1  0  0  0  0
 13 14  1  0  0  0  0
 14 15  1  0  0  0  0
 14 16  1  0  0  0  0
 15 16  1  0  0  0  0
M  END
>  <DSSTox_RID>
20470

>  <DSSTox_CID>
470

>  <DSSTox_Generic_SID>
25066

>  <DSSTox_FileID>
490_CPDBAS_v5d

>  <STRUCTURE_Formula>
C12H14O4

>  <STRUCTURE_MolecularWeight>
222.2402

>  <STRUCTURE_ChemicalType>
defined organic

>  <STRUCTURE_TestedForm_DefinedOrganic>
parent

>  <STRUCTURE_Shown>
tested chemical

>  <TestSubstance_ChemicalName>
Diglycidyl resorcinol ether, technical grade

>  <TestSubstance_CASRN>
101-90-6

>  <TestSubstance_Description>
single chemical compound

>  <STRUCTURE_ChemicalName_IUPAC>
2,2'-[1,3-phenylenebis(oxymethylene)]dioxirane

>  <STRUCTURE_SMILES>
C1=C(C=CC=C1OCC2CO2)OCC3CO3

>  <STRUCTURE_Parent_SMILES>
C1=C(C=CC=C1OCC2CO2)OCC3CO3

>  <STRUCTURE_InChI>
InChI=1/C12H14O4/c1-2-9(13-5-11-7-15-11)4-10(3-1)14-6-12-8-16-12/h1-4,11-12H,5-8H2

>  <STRUCTURE_InChIKey>
WPYCRFCQABTEKC-UHFFFAOYAA

>  <StudyType>
Carcinogenicity

>  <Endpoint>
TD50; Tumor Target Sites

>  <Species>
rat; mouse

>  <ActivityOutcome_CPDBAS_Mutagenicity>
active

>  <TD50_Rat_mg>
3.78

>  <TD50_Rat_mmol>
0.017

>  <ActivityScore_CPDBAS_Rat>
44

>  <TD50_Rat_Note>
TD50 is harmonic mean of more than one positive test

>  <TargetSites_Rat_Male>
stomach

>  <TargetSites_Rat_Female>
stomach

>  <ActivityOutcome_CPDBAS_Rat>
active

>  <TD50_Mouse_mg>
24.3

>  <TD50_Mouse_mmol>
0.109

>  <ActivityScore_CPDBAS_Mouse>
39

>  <TD50_Mouse_Note>
TD50 is harmonic mean of more than one positive test

>  <TargetSites_Mouse_Male>
stomach

>  <TargetSites_Mouse_Female>
stomach

>  <ActivityOutcome_CPDBAS_Mouse>
active

>  <ActivityOutcome_CPDBAS_SingleCellCall>
active

>  <ActivityOutcome_CPDBAS_MultiCellCall>
active

>  <ActivityOutcome_CPDBAS_MultiCellCall_Details>
multisex active; multispecies active

>  <NTP_TechnicalReport>
TR 257

>  <ChemicalPage_URL>
http://potency.berkeley.edu/chempages/DIGLYCIDYL%20RESORCINOL%20ETHER,%20TECHNICAL%20GRADE.html

$$$$



 17 18  0  0  1  0  0  0  0  0999 V2000
    1.9990   -3.8920    0.0000 O   0  0  0  0  0  0  0  0  0  0  0  0
    5.3769   -1.9501    0.0000 N   0  0  0  0  0  0  0  0  0  0  0  0
    5.3769   -3.2474    0.0000 C   0  0  0  0  0  0  0  0  0  0  0  0
    4.2510   -1.2973    0.0000 C   0  0  0  0  0  0  0  0  0  0  0  0
    4.2510   -3.8920    0.0000 N   0  0  0  0  0  0  0  0  0  0  0  0
    3.1250   -1.9501    0.0000 N   0  0  0  0  0  0  0  0  0  0  0  0
    3.1250   -3.2474    0.0000 C   0  0  0  0  0  0  0  0  0  0  0  0
    4.2510    0.0000    0.0000 N   0  0  0  0  0  0  0  0  0  0  0  0
    4.6018   -8.1592    0.0000 O   0  0  0  0  0  0  0  0  0  0  0  0
    1.8114   -8.1592    0.0000 O   0  0  0  0  0  0  0  0  0  0  0  0
    2.1704   -5.8991    0.0000 C   0  0  1  0  0  0  0  0  0  0  0  0
    3.2066   -5.1485    0.0000 O   0  0  0  0  0  0  0  0  0  0  0  0
    2.5702   -7.1230    0.0000 C   0  0  2  0  0  0  0  0  0  0  0  0
    4.2510   -5.8991    0.0000 C   0  0  2  0  0  0  0  0  0  0  0  0
    3.8512   -7.1230    0.0000 C   0  0  2  0  0  0  0  0  0  0  0  0
    0.9546   -5.5075    0.0000 C   0  0  0  0  0  0  0  0  0  0  0  0
    0.0000   -6.3642    0.0000 O   0  0  0  0  0  0  0  0  0  0  0  0
  1  7  2  0  0  0  0
  2  3  1  0  0  0  0
  2  4  2  0  0  0  0
  3  5  1  0  0  0  0
  4  6  1  0  0  0  0
  4  8  1  0  0  0  0
  5  7  1  0  0  0  0
 14  5  1  1  0  0  0
  6  7  1  0  0  0  0
 15  9  1  6  0  0  0
 13 10  1  6  0  0  0
 11 12  1  0  0  0  0
 11 13  1  0  0  0  0
 11 16  1  1  0  0  0
 12 14  1  0  0  0  0
 13 15  1  0  0  0  0
 14 15  1  0  0  0  0
 16 17  1  0  0  0  0
M  END
>  <DSSTox_RID>
20471

>  <DSSTox_CID>
471

>  <DSSTox_Generic_SID>
20471

>  <DSSTox_FileID>
491_CPDBAS_v5d

>  <STRUCTURE_Formula>
C8H14N4O5

>  <STRUCTURE_MolecularWeight>
246.2206

>  <STRUCTURE_ChemicalType>
defined organic

>  <STRUCTURE_TestedForm_DefinedOrganic>
parent

>  <STRUCTURE_Shown>
tested chemical

>  <TestSubstance_ChemicalName>
5,6-Dihydro-5-azacytidine

>  <TestSubstance_CASRN>
62488-57-7

>  <TestSubstance_Description>
single chemical compound

>  <ChemicalNote>
stereochem

>  <STRUCTURE_ChemicalName_IUPAC>
6-amino-3-beta-D-ribofuranosyl-3,4-dihydro-1,3,5-triazin-2(1H)-one

>  <STRUCTURE_SMILES>
O=C2NC(/N)=N\CN2[C@@H]1O[C@H](CO)[C@@H](O)[C@H]1O

>  <STRUCTURE_Parent_SMILES>
O=C2NC(/N)=N\CN2[C@@H]1O[C@H](CO)[C@@H](O)[C@H]1O

>  <STRUCTURE_InChI>
InChI=1/C8H14N4O5/c9-7-10-2-12(8(16)11-7)6-5(15)4(14)3(1-13)17-6/h3-6,13-15H,1-2H2,(H3,9,10,11,16)/t3-,4-,5-,6-/m1/s1/f/h11H,9H2

>  <STRUCTURE_InChIKey>
LJIRBXZDQGQUOO-MOMKEITPDH

>  <StudyType>
Carcinogenicity

>  <Endpoint>
TD50; Tumor Target Sites

>  <Species>
rat

>  <ActivityScore_CPDBAS_Rat>
0

>  <TD50_Rat_Note>
no positive results

>  <TargetSites_Rat_Male>
no positive results

>  <ActivityOutcome_CPDBAS_Rat>
inactive

>  <ActivityOutcome_CPDBAS_SingleCellCall>
inactive

>  <ChemicalPage_URL>
http://potency.berkeley.edu/chempages/5,6-DIHYDRO-5-AZACYTIDINE.html

$$$$



 19 21  0  0  0  0  0  0  0  0999 V2000
    0.6604   -4.6025    0.0000 C   0  0  0  0  0  0  0  0  0  0  0  0
    0.0000   -3.4467    0.0000 C   0  0  0  0  0  0  0  0  0  0  0  0
    0.6604   -2.3012    0.0000 C   0  0  0  0  0  0  0  0  0  0  0  0
    1.9917   -2.3012    0.0000 C   0  0  0  0  0  0  0  0  0  0  0  0
    2.6624   -3.4467    0.0000 C   0  0  0  0  0  0  0  0  0  0  0  0
    1.9917   -4.6025    0.0000 C   0  0  0  0  0  0  0  0  0  0  0  0
    3.9936   -3.4467    0.0000 N   0  0  0  0  0  0  0  0  0  0  0  0
    4.6541   -2.3012    0.0000 C   0  0  3  0  0  0  0  0  0  0  0  0
    3.9936   -1.1455    0.0000 N   0  0  0  0  0  0  0  0  0  0  0  0
    2.6624   -1.1455    0.0000 C   0  0  0  0  0  0  0  0  0  0  0  0
    1.9917    0.0000    0.0000 O   0  0  0  0  0  0  0  0  0  0  0  0
    5.9853   -2.3012    0.0000 C   0  0  0  0  0  0  0  0  0  0  0  0
    6.7696   -1.2177    0.0000 C   0  0  0  0  0  0  0  0  0  0  0  0
    8.0285   -1.6305    0.0000 C   0  0  0  0  0  0  0  0  0  0  0  0
    8.0285   -2.9617    0.0000 C   0  0  0  0  0  0  0  0  0  0  0  0
    6.7696   -3.3745    0.0000 S   0  0  0  0  0  0  0  0  0  0  0  0
    9.1018   -3.7460    0.0000 N   0  3  0  0  0  0  0  0  0  0  0  0
   10.3195   -3.1990    0.0000 O   0  5  0  0  0  0  0  0  0  0  0  0
    8.9676   -5.0669    0.0000 O   0  0  0  0  0  0  0  0  0  0  0  0
  1  2  2  0  0  0  0
  1  6  1  0  0  0  0
  2  3  1  0  0  0  0
  3  4  2  0  0  0  0
  4  5  1  0  0  0  0
  4 10  1  0  0  0  0
  5  6  2  0  0  0  0
  5  7  1  0  0  0  0
  7  8  1  0  0  0  0
  8  9  1  0  0  0  0
  8 12  1  0  0  0  0
  9 10  1  0  0  0  0
 10 11  2  0  0  0  0
 12 13  2  0  0  0  0
 12 16  1  0  0  0  0
 13 14  1  0  0  0  0
 14 15  2  0  0  0  0
 15 16  1  0  0  0  0
 15 17  1  0  0  0  0
 17 18  1  0  0  0  0
 17 19  2  0  0  0  0
M  END
>  <DSSTox_RID>
20472

>  <DSSTox_CID>
472

>  <DSSTox_Generic_SID>
20472

>  <DSSTox_FileID>
492_CPDBAS_v5d

>  <STRUCTURE_Formula>
C12H9N3O3S

>  <STRUCTURE_MolecularWeight>
275.2814

>  <STRUCTURE_ChemicalType>
defined organic

>  <STRUCTURE_TestedForm_DefinedOrganic>
parent

>  <STRUCTURE_Shown>
tested chemical

>  <TestSubstance_ChemicalName>
1,2-Dihydro-2-(5-nitro-2-thienyl) quinazolin-4(3H)-one

>  <TestSubstance_CASRN>
33389-33-2

>  <TestSubstance_Description>
single chemical compound

>  <STRUCTURE_ChemicalName_IUPAC>
2-(5-nitro-2-thienyl)-2,3-dihydroquinazolin-4(1H)-one

>  <STRUCTURE_SMILES>
C1=CC=C2C(=C1)NC(NC2=O)C3=CC=C(S3)[N+]([O-])=O

>  <STRUCTURE_Parent_SMILES>
C1=CC=C2C(=C1)NC(NC2=O)C3=CC=C(S3)[N+]([O-])=O

>  <STRUCTURE_InChI>
InChI=1/C12H9N3O3S/c16-12-7-3-1-2-4-8(7)13-11(14-12)9-5-6-10(19-9)15(17)18/h1-6,11,13H,(H,14,16)/f/h14H

>  <STRUCTURE_InChIKey>
UBXSITBCVLNRNX-YHMJCDSICO

>  <StudyType>
Carcinogenicity

>  <Endpoint>
TD50; Tumor Target Sites

>  <Species>
rat

>  <ActivityOutcome_CPDBAS_Mutagenicity>
active

>  <TD50_Rat_mg>
1.53

>  <TD50_Rat_mmol>
0.00556

>  <ActivityScore_CPDBAS_Rat>
49

>  <TargetSites_Rat_Female>
all tumor bearing animals

>  <ActivityOutcome_CPDBAS_Rat>
active

>  <ActivityOutcome_CPDBAS_SingleCellCall>
active

>  <ChemicalPage_URL>
http://potency.berkeley.edu/chempages/1,2-DIHYDRO-2-(5-NITRO-2-THIENYL)QUINAZOLIN-4(3H)-.html

$$$$



  8  8  0  0  0  0  0  0  0  0999 V2000
    0.6656   -2.3042    0.0000 C   0  0  0  0  0  0  0  0  0  0  0  0
    0.0000   -1.1544    0.0000 C   0  0  0  0  0  0  0  0  0  0  0  0
    0.6656    0.0000    0.0000 C   0  0  0  0  0  0  0  0  0  0  0  0
    1.9969    0.0000    0.0000 C   0  0  0  0  0  0  0  0  0  0  0  0
    2.6579   -1.1544    0.0000 N   0  0  0  0  0  0  0  0  0  0  0  0
    1.9969   -2.3042    0.0000 O   0  0  0  0  0  0  0  0  0  0  0  0
    3.9892   -1.1544    0.0000 N   0  0  0  0  0  0  0  0  0  0  0  0
    4.6549   -2.3042    0.0000 O   0  0  0  0  0  0  0  0  0  0  0  0
  1  2  1  0  0  0  0
  1  6  1  0  0  0  0
  2  3  2  0  0  0  0
  3  4  1  0  0  0  0
  4  5  1  0  0  0  0
  5  6  1  0  0  0  0
  5  7  1  0  0  0  0
  7  8  2  0  0  0  0
M  END
>  <DSSTox_RID>
20473

>  <DSSTox_CID>
473

>  <DSSTox_Generic_SID>
20473

>  <DSSTox_FileID>
493_CPDBAS_v5d

>  <STRUCTURE_Formula>
C4H6N2O2

>  <STRUCTURE_MolecularWeight>
114.1036

>  <STRUCTURE_ChemicalType>
defined organic

>  <STRUCTURE_TestedForm_DefinedOrganic>
parent

>  <STRUCTURE_Shown>
tested chemical

>  <TestSubstance_ChemicalName>
3,6-Dihydro-2-nitroso-2H-1,2-oxazine

>  <TestSubstance_CASRN>
3276-41-3

>  <TestSubstance_Description>
single chemical compound

>  <STRUCTURE_ChemicalName_IUPAC>
2-nitroso-3,6-dihydro-2H-1,2-oxazine

>  <STRUCTURE_SMILES>
C1/C=C\CN(O1)N=O

>  <STRUCTURE_Parent_SMILES>
C1/C=C\CN(O1)N=O

>  <STRUCTURE_InChI>
InChI=1/C4H6N2O2/c7-5-6-3-1-2-4-8-6/h1-2H,3-4H2

>  <STRUCTURE_InChIKey>
JRIFTVNYAPUKTK-UHFFFAOYAT

>  <StudyType>
Carcinogenicity

>  <Endpoint>
TD50; Tumor Target Sites

>  <Species>
rat

>  <TD50_Rat_mg>
90.6

>  <TD50_Rat_mmol>
0.794

>  <ActivityScore_CPDBAS_Rat>
27

>  <TargetSites_Rat_BothSexes>
all tumor bearing animals

>  <ActivityOutcome_CPDBAS_Rat>
active

>  <ActivityOutcome_CPDBAS_SingleCellCall>
active

>  <ChemicalPage_URL>
http://potency.berkeley.edu/chempages/3,6-DIHYDRO-2-NITROSO-2H-1,2-OXAZINE.html

$$$$



 11 12  0  0  0  0  0  0  0  0999 V2000
    0.0000   -2.6606    0.0000 O   0  0  0  0  0  0  0  0  0  0  0  0
    1.1518   -1.9983    0.0000 C   0  0  0  0  0  0  0  0  0  0  0  0
    2.3036   -2.6606    0.0000 O   0  0  0  0  0  0  0  0  0  0  0  0
    3.4554   -1.9983    0.0000 C   0  0  0  0  0  0  0  0  0  0  0  0
    3.4554   -0.6680    0.0000 C   0  0  0  0  0  0  0  0  0  0  0  0
    4.6071    0.0000    0.0000 C   0  0  0  0  0  0  0  0  0  0  0  0
    5.7589   -0.6680    0.0000 C   0  0  0  0  0  0  0  0  0  0  0  0
    5.7589   -1.9983    0.0000 C   0  0  0  0  0  0  0  0  0  0  0  0
    4.6071   -2.6606    0.0000 C   0  0  0  0  0  0  0  0  0  0  0  0
    2.3036    0.0000    0.0000 C   0  0  0  0  0  0  0  0  0  0  0  0
    1.1518   -0.6680    0.0000 C   0  0  0  0  0  0  0  0  0  0  0  0
  1  2  2  0  0  0  0
  2  3  1  0  0  0  0
  2 11  1  0  0  0  0
  3  4  1  0  0  0  0
  4  5  2  0  0  0  0
  4  9  1  0  0  0  0
  5  6  1  0  0  0  0
  5 10  1  0  0  0  0
  6  7  2  0  0  0  0
  7  8  1  0  0  0  0
  8  9  2  0  0  0  0
 10 11  1  0  0  0  0
M  END
>  <DSSTox_RID>
20474

>  <DSSTox_CID>
474

>  <DSSTox_Generic_SID>
20474

>  <DSSTox_FileID>
494_CPDBAS_v5d

>  <STRUCTURE_Formula>
C9H8O2

>  <STRUCTURE_MolecularWeight>
148.1586

>  <STRUCTURE_ChemicalType>
defined organic

>  <STRUCTURE_TestedForm_DefinedOrganic>
parent

>  <STRUCTURE_Shown>
tested chemical

>  <TestSubstance_ChemicalName>
3,4-Dihydrocoumarin

>  <TestSubstance_CASRN>
119-84-6

>  <TestSubstance_Description>
single chemical compound

>  <STRUCTURE_ChemicalName_IUPAC>
chroman-2-one

>  <STRUCTURE_SMILES>
O=C1OC2=C(C=CC=C2)CC1

>  <STRUCTURE_Parent_SMILES>
O=C1OC2=C(C=CC=C2)CC1

>  <STRUCTURE_InChI>
InChI=1/C9H8O2/c10-9-6-5-7-3-1-2-4-8(7)11-9/h1-4H,5-6H2

>  <STRUCTURE_InChIKey>
VMUXSMXIQBNMGZ-UHFFFAOYAH

>  <StudyType>
Carcinogenicity

>  <Endpoint>
TD50; Tumor Target Sites

>  <Species>
rat; mouse

>  <ActivityOutcome_CPDBAS_Mutagenicity>
inactive

>  <TD50_Rat_mg>
2970

>  <TD50_Rat_mmol>
20

>  <ActivityScore_CPDBAS_Rat>
12

>  <TargetSites_Rat_Male>
kidney

>  <TargetSites_Rat_Female>
no positive results

>  <ActivityOutcome_CPDBAS_Rat>
active

>  <TD50_Mouse_mg>
723

>  <TD50_Mouse_mmol>
4.88

>  <ActivityScore_CPDBAS_Mouse>
20

>  <TargetSites_Mouse_Male>
no positive results

>  <TargetSites_Mouse_Female>
liver

>  <ActivityOutcome_CPDBAS_Mouse>
active

>  <ActivityOutcome_CPDBAS_SingleCellCall>
active

>  <ActivityOutcome_CPDBAS_MultiCellCall>
active

>  <ActivityOutcome_CPDBAS_MultiCellCall_Details>
multisite active; multisex active; multispecies active

>  <NTP_TechnicalReport>
TR 423

>  <ChemicalPage_URL>
http://potency.berkeley.edu/chempages/3,4-DIHYDROCOUMARIN.html

$$$$



 12 13  0  0  0  0  0  0  0  0999 V2000
    7.8079   -2.6625    0.0000 C   0  0  0  0  0  0  0  0  0  0  0  0
    6.6523   -1.9988    0.0000 C   0  0  0  0  0  0  0  0  0  0  0  0
    5.5046   -2.6625    0.0000 C   0  0  0  0  0  0  0  0  0  0  0  0
    4.3490   -1.9988    0.0000 C   0  0  0  0  0  0  0  0  0  0  0  0
    3.2012   -2.6625    0.0000 C   0  0  0  0  0  0  0  0  0  0  0  0
    2.0457   -1.9988    0.0000 C   0  0  0  0  0  0  0  0  0  0  0  0
    2.0457   -0.6637    0.0000 C   0  0  0  0  0  0  0  0  0  0  0  0
    3.2012    0.0000    0.0000 C   0  0  0  0  0  0  0  0  0  0  0  0
    4.3490   -0.6637    0.0000 C   0  0  0  0  0  0  0  0  0  0  0  0
    0.7808   -0.2577    0.0000 O   0  0  0  0  0  0  0  0  0  0  0  0
    0.0000   -1.3351    0.0000 C   0  0  0  0  0  0  0  0  0  0  0  0
    0.7808   -2.4048    0.0000 O   0  0  0  0  0  0  0  0  0  0  0  0
  1  2  1  0  0  0  0
  2  3  1  0  0  0  0
  3  4  1  0  0  0  0
  4  5  2  0  0  0  0
  4  9  1  0  0  0  0
  5  6  1  0  0  0  0
  6  7  2  0  0  0  0
  6 12  1  0  0  0  0
  7  8  1  0  0  0  0
  7 10  1  0  0  0  0
  8  9  2  0  0  0  0
 10 11  1  0  0  0  0
 11 12  1  0  0  0  0
M  END
>  <DSSTox_RID>
20475

>  <DSSTox_CID>
475

>  <DSSTox_Generic_SID>
20475

>  <DSSTox_FileID>
495_CPDBAS_v5d

>  <STRUCTURE_Formula>
C10H12O2

>  <STRUCTURE_MolecularWeight>
164.2036

>  <STRUCTURE_ChemicalType>
defined organic

>  <STRUCTURE_TestedForm_DefinedOrganic>
parent

>  <STRUCTURE_Shown>
tested chemical

>  <TestSubstance_ChemicalName>
Dihydrosafrole

>  <TestSubstance_CASRN>
94-58-6

>  <TestSubstance_Description>
single chemical compound

>  <STRUCTURE_ChemicalName_IUPAC>
5-propyl-1,3-benzodioxole

>  <STRUCTURE_SMILES>
CCCC1=CC2=C(C=C1)OCO2

>  <STRUCTURE_Parent_SMILES>
CCCC1=CC2=C(C=C1)OCO2

>  <STRUCTURE_InChI>
InChI=1/C10H12O2/c1-2-3-8-4-5-9-10(6-8)12-7-11-9/h4-6H,2-3,7H2,1H3

>  <STRUCTURE_InChIKey>
MYEIDJPOUKASEC-UHFFFAOYAU

>  <StudyType>
Carcinogenicity

>  <Endpoint>
TD50; Tumor Target Sites

>  <Species>
rat; mouse

>  <ActivityOutcome_CPDBAS_Mutagenicity>
inactive

>  <TD50_Rat_mg>
143

>  <TD50_Rat_mmol>
0.871

>  <ActivityScore_CPDBAS_Rat>
26

>  <TargetSites_Rat_BothSexes>
esophagus

>  <ActivityOutcome_CPDBAS_Rat>
active

>  <TD50_Mouse_mg>
125

>  <TD50_Mouse_mmol>
0.761

>  <ActivityScore_CPDBAS_Mouse>
30

>  <TD50_Mouse_Note>
TD50 is harmonic mean of more than one positive test

>  <TargetSites_Mouse_Male>
liver

>  <TargetSites_Mouse_Female>
lung

>  <ActivityOutcome_CPDBAS_Mouse>
active

>  <ActivityOutcome_CPDBAS_SingleCellCall>
active

>  <ActivityOutcome_CPDBAS_MultiCellCall>
active

>  <ActivityOutcome_CPDBAS_MultiCellCall_Details>
multisite active; multisex active; multispecies active

>  <ChemicalPage_URL>
http://potency.berkeley.edu/chempages/DIHYDROSAFROLE.html

$$$$



 31 33  0  0  1  0  0  0  0  0999 V2000
    4.4965   -3.9839    0.0000 C   0  0  1  0  0  0  0  0  0  0  0  0
    4.4965   -5.2653    0.0000 C   0  0  2  0  0  0  0  0  0  0  0  0
    3.3899   -3.2967    0.0000 C   0  0  0  0  0  0  0  0  0  0  0  0
    4.4965   -2.6793    0.0000 C   0  0  0  0  0  0  0  0  0  0  0  0
    3.3899   -5.8594    0.0000 C   0  0  0  0  0  0  0  0  0  0  0  0
    2.2832   -3.9839    0.0000 C   0  0  0  0  0  0  0  0  0  0  0  0
    3.3899   -7.1641    0.0000 C   0  0  0  0  0  0  0  0  0  0  0  0
    2.2832   -5.2187    0.0000 C   0  0  0  0  0  0  0  0  0  0  0  0
    2.2832   -7.7815    0.0000 C   0  0  0  0  0  0  0  0  0  0  0  0
    2.2832   -9.0629    0.0000 C   0  0  0  0  0  0  0  0  0  0  0  0
    3.3899   -9.7385    0.0000 C   0  0  0  0  0  0  0  0  0  0  0  0
    1.1532   -9.7385    0.0000 C   0  0  0  0  0  0  0  0  0  0  0  0
    3.3899  -11.0549    0.0000 C   0  0  0  0  0  0  0  0  0  0  0  0
    4.5431   -9.0629    0.0000 C   0  0  0  0  0  0  0  0  0  0  0  0
    1.1532  -11.0549    0.0000 C   0  0  2  0  0  0  0  0  0  0  0  0
    2.2832  -11.6490    0.0000 C   0  0  0  0  0  0  0  0  0  0  0  0
    0.0000  -11.6490    0.0000 O   0  0  0  0  0  0  0  0  0  0  0  0
    6.7215   -3.9839    0.0000 C   0  0  0  0  0  0  0  0  0  0  0  0
    6.7215   -5.2653    0.0000 C   0  0  0  0  0  0  0  0  0  0  0  0
    5.6265   -3.3316    0.0000 C   0  0  2  0  0  0  0  0  0  0  0  0
    5.6265   -1.9803    0.0000 C   0  0  1  0  0  0  0  0  0  0  0  0
    6.7448   -1.3163    0.0000 C   0  0  0  0  0  0  0  0  0  0  0  0
    4.4383   -1.2814    0.0000 C   0  0  0  0  0  0  0  0  0  0  0  0
    7.8514   -1.9803    0.0000 C   0  0  0  0  0  0  0  0  0  0  0  0
    9.0280   -1.3163    0.0000 C   0  0  2  0  0  0  0  0  0  0  0  0
   10.1696   -2.0269    0.0000 C   0  0  0  0  0  0  0  0  0  0  0  0
    9.0163    0.0000    0.0000 O   0  0  0  0  0  0  0  0  0  0  0  0
   11.3112   -2.6676    0.0000 C   0  0  0  0  0  0  0  0  0  0  0  0
    9.5172   -3.1685    0.0000 C   0  0  0  0  0  0  0  0  0  0  0  0
   10.8335   -0.8504    0.0000 O   0  0  0  0  0  0  0  0  0  0  0  0
    4.4965   -6.5351    0.0000 H   0  0  0  0  0  0  0  0  0  0  0  0
  1  3  1  0  0  0  0
  1  4  1  1  0  0  0
  1 20  1  0  0  0  0
  1  2  1  0  0  0  0
  2  5  1  0  0  0  0
  2 19  1  0  0  0  0
  2 31  1  6  0  0  0
  3  6  1  0  0  0  0
  5  7  2  0  0  0  0
  5  8  1  0  0  0  0
  6  8  1  0  0  0  0
  7  9  1  0  0  0  0
  9 10  2  0  0  0  0
 10 11  1  0  0  0  0
 10 12  1  0  0  0  0
 11 13  1  0  0  0  0
 11 14  2  0  0  0  0
 12 15  1  0  0  0  0
 13 16  1  0  0  0  0
 15 17  1  6  0  0  0
 15 16  1  0  0  0  0
 18 19  1  0  0  0  0
 18 20  1  0  0  0  0
 20 21  1  1  0  0  0
 21 22  1  0  0  0  0
 21 23  1  6  0  0  0
 22 24  1  0  0  0  0
 24 25  1  0  0  0  0
 25 26  1  0  0  0  0
 25 27  1  1  0  0  0
 26 28  1  0  0  0  0
 26 29  1  0  0  0  0
 26 30  1  0  0  0  0
M  END
>  <DSSTox_RID>
21260

>  <DSSTox_CID>
1260

>  <DSSTox_Generic_SID>
21260

>  <DSSTox_FileID>
497_CPDBAS_v5d

>  <STRUCTURE_Formula>
C27H44O3

>  <STRUCTURE_MolecularWeight>
416.6365

>  <STRUCTURE_ChemicalType>
defined organic

>  <STRUCTURE_TestedForm_DefinedOrganic>
parent

>  <STRUCTURE_Shown>
tested chemical

>  <TestSubstance_ChemicalName>
24R,25-Dihydroxyvitamin D3 (Secalciferol)

>  <TestSubstance_CASRN>
55721-11-4

>  <TestSubstance_Description>
single chemical compound

>  <ChemicalNote>
stereochem

>  <STRUCTURE_ChemicalName_IUPAC>
(3S,5Z,7E,24R)-9,10-secocholesta-5,7,10-triene-3,24,25-triol

>  <STRUCTURE_SMILES>
CC(C)(O)[C@H](O)CC[C@@H](C)[C@H]1CC[C@H]2C(\CCC[C@]12C)=C\C=C3\C[C@@H](O)CCC3=C

>  <STRUCTURE_Parent_SMILES>
CC(C)(O)[C@H](O)CC[C@@H](C)[C@H]1CC[C@H]2C(\CCC[C@]12C)=C\C=C3\C[C@@H](O)CCC3=C

>  <STRUCTURE_InChI>
InChI=1/C27H44O3/c1-18-8-12-22(28)17-21(18)11-10-20-7-6-16-27(5)23(13-14-24(20)27)19(2)9-15-25(29)26(3,4)30/h10-11,19,22-25,28-30H,1,6-9,12-17H2,2-5H3/b20-10+,21-11-/t19-,22+,23-,24+,25-,27-/m1/s1

>  <STRUCTURE_InChIKey>
FCKJYANJHNLEEP-XRWYNYHCBQ

>  <StudyType>
Carcinogenicity

>  <Endpoint>
TD50; Tumor Target Sites

>  <Species>
rat

>  <ActivityScore_CPDBAS_Rat>
0

>  <TD50_Rat_Note>
no positive results

>  <TargetSites_Rat_Male>
no positive results

>  <ActivityOutcome_CPDBAS_Rat>
inactive

>  <ActivityOutcome_CPDBAS_SingleCellCall>
inactive

>  <Note_CPDBAS>
ChemicalName modified v5a

>  <ChemicalPage_URL>
http://potency.berkeley.edu/chempages/24R%2C25-DIHYDROXYVITAMIN%20D3.html

$$$$



  9  9  0  0  0  0  0  0  0  0999 V2000
    3.4264    0.0000    0.0000 C   0  0  0  0  0  0  0  0  0  0  0  0
    3.2878   -1.3253    0.0000 C   0  0  0  0  0  0  0  0  0  0  0  0
    3.4264   -2.6460    0.0000 C   0  0  0  0  0  0  0  0  0  0  0  0
    4.5808   -3.3109    0.0000 O   0  0  0  0  0  0  0  0  0  0  0  0
    2.2119   -3.1862    0.0000 N   0  0  0  0  0  0  0  0  0  0  0  0
    1.3207   -2.1980    0.0000 C   0  0  0  0  0  0  0  0  0  0  0  0
    0.0000   -2.3366    0.0000 O   0  0  0  0  0  0  0  0  0  0  0  0
    1.9856   -1.0482    0.0000 O   0  0  0  0  0  0  0  0  0  0  0  0
    4.6177   -1.3253    0.0000 C   0  0  0  0  0  0  0  0  0  0  0  0
  1  2  1  0  0  0  0
  2  3  1  0  0  0  0
  2  8  1  0  0  0  0
  2  9  1  0  0  0  0
  3  4  2  0  0  0  0
  3  5  1  0  0  0  0
  5  6  1  0  0  0  0
  6  7  2  0  0  0  0
  6  8  1  0  0  0  0
M  END
>  <DSSTox_RID>
20478

>  <DSSTox_CID>
478

>  <DSSTox_Generic_SID>
20478

>  <DSSTox_FileID>
500_CPDBAS_v5d

>  <STRUCTURE_Formula>
C5H7NO3

>  <STRUCTURE_MolecularWeight>
129.1152

>  <STRUCTURE_ChemicalType>
defined organic

>  <STRUCTURE_TestedForm_DefinedOrganic>
parent

>  <STRUCTURE_Shown>
tested chemical

>  <TestSubstance_ChemicalName>
Dimethadione

>  <TestSubstance_CASRN>
695-53-4

>  <TestSubstance_Description>
single chemical compound

>  <STRUCTURE_ChemicalName_IUPAC>
5,5-dimethyl-1,3-oxazolidine-2,4-dione

>  <STRUCTURE_SMILES>
CC1(C(=O)NC(=O)O1)C

>  <STRUCTURE_Parent_SMILES>
CC1(C(=O)NC(=O)O1)C

>  <STRUCTURE_InChI>
InChI=1/C5H7NO3/c1-5(2)3(7)6-4(8)9-5/h1-2H3,(H,6,7,8)/f/h6H

>  <STRUCTURE_InChIKey>
JYJFNDQBESEHJQ-BRMMOCHJCV

>  <StudyType>
Carcinogenicity

>  <Endpoint>
TD50; Tumor Target Sites

>  <Species>
rat

>  <ActivityScore_CPDBAS_Rat>
0

>  <TD50_Rat_Note>
no positive results

>  <TargetSites_Rat_Male>
no positive results

>  <ActivityOutcome_CPDBAS_Rat>
inactive

>  <ActivityOutcome_CPDBAS_SingleCellCall>
inactive

>  <ChemicalPage_URL>
http://potency.berkeley.edu/chempages/DIMETHADIONE.html

$$$$



 12 11  0  0  0  0  0  0  0  0999 V2000
    3.3242   -1.9909    0.0000 S   0  0  0  0  0  0  0  0  0  0  0  0
    1.9909   -1.9909    0.0000 P   0  0  0  0  0  0  0  0  0  0  0  0
    1.9909   -3.3242    0.0000 S   0  0  0  0  0  0  0  0  0  0  0  0
    3.1448   -3.9878    0.0000 C   0  0  0  0  0  0  0  0  0  0  0  0
    3.1448   -5.3151    0.0000 C   0  0  0  0  0  0  0  0  0  0  0  0
    1.9909   -5.9788    0.0000 O   0  0  0  0  0  0  0  0  0  0  0  0
    4.2928   -5.9788    0.0000 N   0  0  0  0  0  0  0  0  0  0  0  0
    5.4467   -5.3151    0.0000 C   0  0  0  0  0  0  0  0  0  0  0  0
    0.6636   -1.9909    0.0000 O   0  0  0  0  0  0  0  0  0  0  0  0
    0.0000   -3.1448    0.0000 C   0  0  0  0  0  0  0  0  0  0  0  0
    1.9909   -0.6636    0.0000 O   0  0  0  0  0  0  0  0  0  0  0  0
    3.1448    0.0000    0.0000 C   0  0  0  0  0  0  0  0  0  0  0  0
  1  2  2  0  0  0  0
  2  3  1  0  0  0  0
  2  9  1  0  0  0  0
  2 11  1  0  0  0  0
  3  4  1  0  0  0  0
  4  5  1  0  0  0  0
  5  6  2  0  0  0  0
  5  7  1  0  0  0  0
  7  8  1  0  0  0  0
  9 10  1  0  0  0  0
 11 12  1  0  0  0  0
M  END
>  <DSSTox_RID>
20479

>  <DSSTox_CID>
479

>  <DSSTox_Generic_SID>
20479

>  <DSSTox_FileID>
501_CPDBAS_v5d

>  <STRUCTURE_Formula>
C5H12NO3PS2

>  <STRUCTURE_MolecularWeight>
229.2574

>  <STRUCTURE_ChemicalType>
defined organic

>  <STRUCTURE_TestedForm_DefinedOrganic>
parent

>  <STRUCTURE_Shown>
tested chemical

>  <TestSubstance_ChemicalName>
Dimethoate

>  <TestSubstance_CASRN>
60-51-5

>  <TestSubstance_Description>
single chemical compound

>  <STRUCTURE_ChemicalName_IUPAC>
O,O-dimethyl S-[2-(methylamino)-2-oxoethyl] dithiophosphate

>  <STRUCTURE_SMILES>
S=P(SCC(=O)NC)(OC)OC

>  <STRUCTURE_Parent_SMILES>
S=P(SCC(=O)NC)(OC)OC

>  <STRUCTURE_InChI>
InChI=1/C5H12NO3PS2/c1-6-5(7)4-12-10(11,8-2)9-3/h4H2,1-3H3,(H,6,7)/f/h6H

>  <STRUCTURE_InChIKey>
MCWXGJITAZMZEV-BRMMOCHJCN

>  <StudyType>
Carcinogenicity

>  <Endpoint>
TD50; Tumor Target Sites

>  <Species>
rat; mouse

>  <ActivityOutcome_CPDBAS_Mutagenicity>
active

>  <ActivityScore_CPDBAS_Rat>
0

>  <TD50_Rat_Note>
no positive results

>  <TargetSites_Rat_Male>
no positive results

>  <TargetSites_Rat_Female>
no positive results

>  <ActivityOutcome_CPDBAS_Rat>
inactive

>  <ActivityScore_CPDBAS_Mouse>
0

>  <TD50_Mouse_Note>
no positive results

>  <TargetSites_Mouse_Male>
no positive results

>  <TargetSites_Mouse_Female>
no positive results

>  <ActivityOutcome_CPDBAS_Mouse>
inactive

>  <ActivityOutcome_CPDBAS_SingleCellCall>
inactive

>  <ActivityOutcome_CPDBAS_MultiCellCall>
inactive

>  <ActivityOutcome_CPDBAS_MultiCellCall_Details>
multisex inactive; multispecies inactive

>  <NTP_TechnicalReport>
TR 4

>  <ChemicalPage_URL>
http://potency.berkeley.edu/chempages/DIMETHOATE.html

$$$$



 12 12  0  0  0  0  0  0  0  0999 V2000
    2.3013    0.0000    0.0000 C   0  0  0  0  0  0  0  0  0  0  0  0
    2.3013   -1.3269    0.0000 C   0  0  3  0  0  0  0  0  0  0  0  0
    3.4554   -1.9903    0.0000 C   0  0  0  0  0  0  0  0  0  0  0  0
    3.4554   -3.3241    0.0000 C   0  0  3  0  0  0  0  0  0  0  0  0
    2.3013   -3.9876    0.0000 O   0  0  0  0  0  0  0  0  0  0  0  0
    1.1541   -3.3241    0.0000 C   0  0  3  0  0  0  0  0  0  0  0  0
    1.1541   -1.9903    0.0000 O   0  0  0  0  0  0  0  0  0  0  0  0
    0.0000   -3.9876    0.0000 C   0  0  0  0  0  0  0  0  0  0  0  0
    4.6095   -3.9876    0.0000 O   0  0  0  0  0  0  0  0  0  0  0  0
    5.7567   -3.3241    0.0000 C   0  0  0  0  0  0  0  0  0  0  0  0
    5.7567   -1.9903    0.0000 O   0  0  0  0  0  0  0  0  0  0  0  0
    6.9108   -3.9876    0.0000 C   0  0  0  0  0  0  0  0  0  0  0  0
  1  2  1  0  0  0  0
  2  3  1  0  0  0  0
  2  7  1  0  0  0  0
  3  4  1  0  0  0  0
  4  5  1  0  0  0  0
  4  9  1  0  0  0  0
  5  6  1  0  0  0  0
  6  7  1  0  0  0  0
  6  8  1  0  0  0  0
  9 10  1  0  0  0  0
 10 11  2  0  0  0  0
 10 12  1  0  0  0  0
M  END
>  <DSSTox_RID>
20480

>  <DSSTox_CID>
480

>  <DSSTox_Generic_SID>
20480

>  <DSSTox_FileID>
502_CPDBAS_v5d

>  <STRUCTURE_Formula>
C8H14O4

>  <STRUCTURE_MolecularWeight>
174.1944

>  <STRUCTURE_ChemicalType>
defined organic

>  <STRUCTURE_TestedForm_DefinedOrganic>
parent

>  <STRUCTURE_Shown>
tested chemical

>  <TestSubstance_ChemicalName>
Dimethoxane

>  <TestSubstance_CASRN>
828-00-2

>  <TestSubstance_Description>
single chemical compound

>  <STRUCTURE_ChemicalName_IUPAC>
2,6-dimethyl-1,3-dioxan-4-yl acetate

>  <STRUCTURE_SMILES>
CC1CC(OC(O1)C)OC(=O)C

>  <STRUCTURE_Parent_SMILES>
CC1CC(OC(O1)C)OC(=O)C

>  <STRUCTURE_InChI>
InChI=1/C8H14O4/c1-5-4-8(11-6(2)9)12-7(3)10-5/h5,7-8H,4H2,1-3H3

>  <STRUCTURE_InChIKey>
PHMNXPYGVPEQSJ-UHFFFAOYAZ

>  <StudyType>
Carcinogenicity

>  <Endpoint>
TD50; Tumor Target Sites

>  <Species>
rat

>  <ActivityOutcome_CPDBAS_Mutagenicity>
active

>  <TD50_Rat_mg>
716

>  <TD50_Rat_mmol>
4.11

>  <ActivityScore_CPDBAS_Rat>
19

>  <TargetSites_Rat_Male>
hematopoietic system; kidney; liver; skin; subcutaneous tissue

>  <ActivityOutcome_CPDBAS_Rat>
active

>  <ActivityOutcome_CPDBAS_SingleCellCall>
active

>  <ActivityOutcome_CPDBAS_MultiCellCall>
active

>  <ActivityOutcome_CPDBAS_MultiCellCall_Details>
multisite active

>  <NTP_TechnicalReport>
TR 354

>  <ChemicalPage_URL>
http://potency.berkeley.edu/chempages/DIMETHOXANE.html

$$$$



 12 12  0  0  0  0  0  0  0  0999 V2000
    2.3013    0.0000    0.0000 C   0  0  0  0  0  0  0  0  0  0  0  0
    2.3013   -1.3269    0.0000 C   0  0  3  0  0  0  0  0  0  0  0  0
    3.4554   -1.9903    0.0000 C   0  0  0  0  0  0  0  0  0  0  0  0
    3.4554   -3.3241    0.0000 C   0  0  3  0  0  0  0  0  0  0  0  0
    2.3013   -3.9876    0.0000 O   0  0  0  0  0  0  0  0  0  0  0  0
    1.1541   -3.3241    0.0000 C   0  0  3  0  0  0  0  0  0  0  0  0
    1.1541   -1.9903    0.0000 O   0  0  0  0  0  0  0  0  0  0  0  0
    0.0000   -3.9876    0.0000 C   0  0  0  0  0  0  0  0  0  0  0  0
    4.6095   -3.9876    0.0000 O   0  0  0  0  0  0  0  0  0  0  0  0
    5.7567   -3.3241    0.0000 C   0  0  0  0  0  0  0  0  0  0  0  0
    5.7567   -1.9903    0.0000 O   0  0  0  0  0  0  0  0  0  0  0  0
    6.9108   -3.9876    0.0000 C   0  0  0  0  0  0  0  0  0  0  0  0
  1  2  1  0  0  0  0
  2  3  1  0  0  0  0
  2  7  1  0  0  0  0
  3  4  1  0  0  0  0
  4  5  1  0  0  0  0
  4  9  1  0  0  0  0
  5  6  1  0  0  0  0
  6  7  1  0  0  0  0
  6  8  1  0  0  0  0
  9 10  1  0  0  0  0
 10 11  2  0  0  0  0
 10 12  1  0  0  0  0
M  END
>  <DSSTox_RID>
20481

>  <DSSTox_CID>
480

>  <DSSTox_Generic_SID>
20481

>  <DSSTox_FileID>
503_CPDBAS_v5d

>  <STRUCTURE_Formula>
C8H14O4

>  <STRUCTURE_MolecularWeight>
174.1962

>  <STRUCTURE_ChemicalType>
defined organic

>  <STRUCTURE_TestedForm_DefinedOrganic>
parent

>  <STRUCTURE_Shown>
tested chemical

>  <TestSubstance_ChemicalName>
Dimethoxane, commercial grade

>  <TestSubstance_CASRN>
828-00-2

>  <TestSubstance_Description>
single chemical compound

>  <ChemicalNote>
commercial grade suggests low purity

>  <STRUCTURE_ChemicalName_IUPAC>
2,6-dimethyl-1,3-dioxan-4-yl acetate

>  <STRUCTURE_SMILES>
CC1CC(OC(O1)C)OC(=O)C

>  <STRUCTURE_Parent_SMILES>
CC1CC(OC(O1)C)OC(=O)C

>  <STRUCTURE_InChI>
InChI=1/C8H14O4/c1-5-4-8(11-6(2)9)12-7(3)10-5/h5,7-8H,4H2,1-3H3

>  <STRUCTURE_InChIKey>
PHMNXPYGVPEQSJ-UHFFFAOYAZ

>  <StudyType>
Carcinogenicity

>  <Endpoint>
TD50; Tumor Target Sites

>  <Species>
rat; mouse

>  <ActivityOutcome_CPDBAS_Mutagenicity>
active

>  <ActivityScore_CPDBAS_Rat>
0

>  <TD50_Rat_Note>
no positive results

>  <TargetSites_Rat_Male>
no positive results

>  <TargetSites_Rat_Female>
no positive results

>  <ActivityOutcome_CPDBAS_Rat>
inactive

>  <ActivityScore_CPDBAS_Mouse>
0

>  <TD50_Mouse_Note>
no positive results

>  <TargetSites_Mouse_Male>
no positive results

>  <TargetSites_Mouse_Female>
no positive results

>  <ActivityOutcome_CPDBAS_Mouse>
inactive

>  <ActivityOutcome_CPDBAS_SingleCellCall>
inactive

>  <ActivityOutcome_CPDBAS_MultiCellCall>
inactive

>  <ActivityOutcome_CPDBAS_MultiCellCall_Details>
multisex inactive; multispecies inactive

>  <ChemicalPage_URL>
http://potency.berkeley.edu/chempages/DIMETHOXANE,%20COMMERCIAL%20GRADE.html

$$$$



 19 20  0  0  0  0  0  0  0  0999 V2000
    9.2163   -6.6542    0.0000 N   0  0  0  0  0  0  0  0  0  0  0  0
    8.0643   -5.9906    0.0000 C   0  0  0  0  0  0  0  0  0  0  0  0
    8.0643   -4.6542    0.0000 C   0  0  0  0  0  0  0  0  0  0  0  0
    6.9122   -6.6542    0.0000 C   0  0  0  0  0  0  0  0  0  0  0  0
    6.9122   -3.9907    0.0000 C   0  0  0  0  0  0  0  0  0  0  0  0
    5.7602   -5.9906    0.0000 C   0  0  0  0  0  0  0  0  0  0  0  0
    5.7602   -4.6542    0.0000 C   0  0  0  0  0  0  0  0  0  0  0  0
    4.6081   -3.9907    0.0000 C   0  0  0  0  0  0  0  0  0  0  0  0
    3.4561   -4.6634    0.0000 C   0  0  0  0  0  0  0  0  0  0  0  0
    0.0092   -3.9814    0.0000 C   0  0  0  0  0  0  0  0  0  0  0  0
    0.0000   -2.6635    0.0000 C   0  0  0  0  0  0  0  0  0  0  0  0
    1.1520   -1.9999    0.0000 C   0  0  0  0  0  0  0  0  0  0  0  0
    2.3041   -2.6635    0.0000 C   0  0  0  0  0  0  0  0  0  0  0  0
    2.3041   -3.9999    0.0000 C   0  0  0  0  0  0  0  0  0  0  0  0
    1.1613   -4.6450    0.0000 C   0  0  0  0  0  0  0  0  0  0  0  0
    1.1613   -5.9814    0.0000 O   0  0  0  0  0  0  0  0  0  0  0  0
    0.0092   -6.6450    0.0000 C   0  0  0  0  0  0  0  0  0  0  0  0
    1.1520   -0.6636    0.0000 O   0  0  0  0  0  0  0  0  0  0  0  0
    0.0000    0.0000    0.0000 C   0  0  0  0  0  0  0  0  0  0  0  0
  1  2  1  0  0  0  0
  2  3  2  0  0  0  0
  2  4  1  0  0  0  0
  3  5  1  0  0  0  0
  4  6  2  0  0  0  0
  5  7  2  0  0  0  0
  6  7  1  0  0  0  0
  7  8  1  0  0  0  0
  8  9  2  0  0  0  0
  9 14  1  0  0  0  0
 10 15  2  0  0  0  0
 10 11  1  0  0  0  0
 11 12  2  0  0  0  0
 12 13  1  0  0  0  0
 12 18  1  0  0  0  0
 13 14  2  0  0  0  0
 14 15  1  0  0  0  0
 15 16  1  0  0  0  0
 16 17  1  0  0  0  0
 18 19  1  0  0  0  0
M  END
>  <DSSTox_RID>
20482

>  <DSSTox_CID>
482

>  <DSSTox_Generic_SID>
20482

>  <DSSTox_FileID>
504_CPDBAS_v5d

>  <STRUCTURE_Formula>
C16H17NO2

>  <STRUCTURE_MolecularWeight>
255.3158

>  <STRUCTURE_ChemicalType>
defined organic

>  <STRUCTURE_TestedForm_DefinedOrganic>
parent

>  <STRUCTURE_Shown>
tested chemical

>  <TestSubstance_ChemicalName>
2,5-Dimethoxy-4'-aminostilbene

>  <TestSubstance_CASRN>
5803-51-0

>  <TestSubstance_Description>
single chemical compound

>  <STRUCTURE_ChemicalName_IUPAC>
4-[(E)-2-(2,5-dimethoxyphenyl)ethenyl]aniline

>  <STRUCTURE_SMILES>
NC1=CC=C(/C=C/C2=CC(OC)=CC=C2OC)C=C1

>  <STRUCTURE_Parent_SMILES>
NC1=CC=C(/C=C/C2=CC(OC)=CC=C2OC)C=C1

>  <STRUCTURE_InChI>
InChI=1/C16H17NO2/c1-18-15-9-10-16(19-2)13(11-15)6-3-12-4-7-14(17)8-5-12/h3-11H,17H2,1-2H3/b6-3+

>  <STRUCTURE_InChIKey>
OZGXSMOLBWHIQA-ZZXKWVIFBU

>  <StudyType>
Carcinogenicity

>  <Endpoint>
TD50; Tumor Target Sites

>  <Species>
rat; mouse

>  <TD50_Rat_mg>
0.721

>  <TD50_Rat_mmol>
0.00282

>  <ActivityScore_CPDBAS_Rat>
52

>  <TargetSites_Rat_Male>
ear Zymbals gland; skin; small intestine; stomach

>  <ActivityOutcome_CPDBAS_Rat>
active

>  <TD50_Mouse_mg>
95.9

>  <TD50_Mouse_mmol>
0.376

>  <ActivityScore_CPDBAS_Mouse>
33

>  <TargetSites_Mouse_Male>
liver; lung

>  <TargetSites_Mouse_Female>
no positive results

>  <ActivityOutcome_CPDBAS_Mouse>
active

>  <ActivityOutcome_CPDBAS_SingleCellCall>
active

>  <ActivityOutcome_CPDBAS_MultiCellCall>
active

>  <ActivityOutcome_CPDBAS_MultiCellCall_Details>
multisite active; multispecies active

>  <Note_CPDBAS>
structure modified v5b

>  <ChemicalPage_URL>
http://potency.berkeley.edu/chempages/2,5-DIMETHOXY-4'-AMINOSTILBENE.html

$$$$



 22 23  0  0  0  0  0  0  0  0999 V2000
   10.6341    0.0000    0.0000 C   0  0  0  0  0  0  0  0  0  0  0  0
    9.3064    0.0000    0.0000 O   0  0  0  0  0  0  0  0  0  0  0  0
    8.6365   -1.1483    0.0000 C   0  0  0  0  0  0  0  0  0  0  0  0
    9.3064   -2.3086    0.0000 C   0  0  0  0  0  0  0  0  0  0  0  0
    8.6365   -3.4570    0.0000 C   0  0  0  0  0  0  0  0  0  0  0  0
    7.3087   -3.4570    0.0000 C   0  0  0  0  0  0  0  0  0  0  0  0
    6.6508   -2.3086    0.0000 C   0  0  0  0  0  0  0  0  0  0  0  0
    7.3087   -1.1483    0.0000 C   0  0  0  0  0  0  0  0  0  0  0  0
    5.3111   -2.3086    0.0000 C   0  0  0  0  0  0  0  0  0  0  0  0
    4.6532   -3.4570    0.0000 C   0  0  0  0  0  0  0  0  0  0  0  0
    3.3254   -3.4570    0.0000 C   0  0  0  0  0  0  0  0  0  0  0  0
    2.6555   -2.3086    0.0000 C   0  0  0  0  0  0  0  0  0  0  0  0
    3.3254   -1.1483    0.0000 C   0  0  0  0  0  0  0  0  0  0  0  0
    4.6532   -1.1483    0.0000 C   0  0  0  0  0  0  0  0  0  0  0  0
    1.3278   -2.3086    0.0000 N   0  0  0  0  0  0  0  0  0  0  0  0
    0.6699   -1.1483    0.0000 C   0  0  0  0  0  0  0  0  0  0  0  0
    0.0000    0.0000    0.0000 O   0  0  0  0  0  0  0  0  0  0  0  0
    2.6555   -4.6053    0.0000 O   0  0  0  0  0  0  0  0  0  0  0  0
    1.3278   -4.6053    0.0000 C   0  0  0  0  0  0  0  0  0  0  0  0
   10.6341   -2.3086    0.0000 N   0  0  0  0  0  0  0  0  0  0  0  0
   11.2920   -3.4570    0.0000 C   0  0  0  0  0  0  0  0  0  0  0  0
   11.9619   -4.6053    0.0000 O   0  0  0  0  0  0  0  0  0  0  0  0
  1  2  1  0  0  0  0
  2  3  1  0  0  0  0
  3  4  2  0  0  0  0
  3  8  1  0  0  0  0
  4  5  1  0  0  0  0
  4 20  1  0  0  0  0
  5  6  2  0  0  0  0
  6  7  1  0  0  0  0
  7  8  2  0  0  0  0
  7  9  1  0  0  0  0
  9 10  2  0  0  0  0
  9 14  1  0  0  0  0
 10 11  1  0  0  0  0
 11 12  2  0  0  0  0
 11 18  1  0  0  0  0
 12 13  1  0  0  0  0
 12 15  1  0  0  0  0
 13 14  2  0  0  0  0
 15 16  2  0  0  0  0
 16 17  2  0  0  0  0
 18 19  1  0  0  0  0
 20 21  2  0  0  0  0
 21 22  2  0  0  0  0
M  END
>  <DSSTox_RID>
20484

>  <DSSTox_CID>
484

>  <DSSTox_Generic_SID>
20484

>  <DSSTox_FileID>
506_CPDBAS_v5d

>  <STRUCTURE_Formula>
C16H12N2O4

>  <STRUCTURE_MolecularWeight>
296.2775

>  <STRUCTURE_ChemicalType>
defined organic

>  <STRUCTURE_TestedForm_DefinedOrganic>
parent

>  <STRUCTURE_Shown>
tested chemical

>  <TestSubstance_ChemicalName>
3,3'-Dimethoxybenzidine-4,4'-diisocyanate

>  <TestSubstance_CASRN>
91-93-0

>  <TestSubstance_Description>
single chemical compound

>  <STRUCTURE_ChemicalName_IUPAC>
4,4'-diisocyanato-3,3'-dimethoxybiphenyl

>  <STRUCTURE_SMILES>
COC1=C(C=CC(=C1)C2=CC(=C(C=C2)N=C=O)OC)N=C=O

>  <STRUCTURE_Parent_SMILES>
COC1=C(C=CC(=C1)C2=CC(=C(C=C2)N=C=O)OC)N=C=O

>  <STRUCTURE_InChI>
InChI=1/C16H12N2O4/c1-21-15-7-11(3-5-13(15)17-9-19)12-4-6-14(18-10-20)16(8-12)22-2/h3-8H,1-2H3

>  <STRUCTURE_InChIKey>
QZWKEPYTBWZJJA-UHFFFAOYAQ

>  <StudyType>
Carcinogenicity

>  <Endpoint>
TD50; Tumor Target Sites

>  <Species>
rat; mouse

>  <ActivityOutcome_CPDBAS_Mutagenicity>
active

>  <TD50_Rat_mg>
1630

>  <TD50_Rat_mmol>
5.5

>  <ActivityScore_CPDBAS_Rat>
18

>  <TD50_Rat_Note>
TD50 is harmonic mean of more than one positive test

>  <TargetSites_Rat_Male>
hematopoietic system; skin

>  <TargetSites_Rat_Female>
hematopoietic system; uterus

>  <ActivityOutcome_CPDBAS_Rat>
active

>  <ActivityScore_CPDBAS_Mouse>
0

>  <TD50_Mouse_Note>
no positive results

>  <TargetSites_Mouse_Male>
no positive results

>  <TargetSites_Mouse_Female>
no positive results

>  <ActivityOutcome_CPDBAS_Mouse>
inactive

>  <ActivityOutcome_CPDBAS_SingleCellCall>
active

>  <ActivityOutcome_CPDBAS_MultiCellCall>
active

>  <ActivityOutcome_CPDBAS_MultiCellCall_Details>
multisite active; multisex active

>  <NTP_TechnicalReport>
TR 128

>  <ChemicalPage_URL>
http://potency.berkeley.edu/chempages/3,3'-DIMETHOXYBENZIDINE-4,4'-DIISOCYANATE.html

$$$$



 18 20  0  0  0  0  0  0  0  0999 V2000
    5.7570   -4.6524    0.0000 O   0  0  0  0  0  0  0  0  0  0  0  0
    6.9100   -3.9912    0.0000 C   0  0  0  0  0  0  0  0  0  0  0  0
    8.0631   -4.6524    0.0000 O   0  0  0  0  0  0  0  0  0  0  0  0
    6.9100   -2.6608    0.0000 C   0  0  0  0  0  0  0  0  0  0  0  0
    5.7570   -1.9916    0.0000 C   0  0  0  0  0  0  0  0  0  0  0  0
    4.6040   -2.6608    0.0000 C   0  0  0  0  0  0  0  0  0  0  0  0
    4.6040   -3.9912    0.0000 C   0  0  0  0  0  0  0  0  0  0  0  0
    3.4590   -4.6524    0.0000 C   0  0  0  0  0  0  0  0  0  0  0  0
    2.3060   -3.9912    0.0000 C   0  0  0  0  0  0  0  0  0  0  0  0
    2.3060   -2.6608    0.0000 C   0  0  0  0  0  0  0  0  0  0  0  0
    3.4590   -1.9916    0.0000 C   0  0  0  0  0  0  0  0  0  0  0  0
    3.4590   -0.6612    0.0000 O   0  0  0  0  0  0  0  0  0  0  0  0
    2.3060    0.0000    0.0000 C   0  0  0  0  0  0  0  0  0  0  0  0
    1.1530   -4.6524    0.0000 O   0  0  0  0  0  0  0  0  0  0  0  0
    0.0000   -3.9912    0.0000 C   0  0  0  0  0  0  0  0  0  0  0  0
    6.0392   -0.6934    0.0000 C   0  0  0  0  0  0  0  0  0  0  0  0
    7.3616   -0.5483    0.0000 C   0  0  0  0  0  0  0  0  0  0  0  0
    7.9018   -1.7658    0.0000 C   0  0  0  0  0  0  0  0  0  0  0  0
  1  2  1  0  0  0  0
  1  7  1  0  0  0  0
  2  3  2  0  0  0  0
  2  4  1  0  0  0  0
  4  5  2  0  0  0  0
  4 18  1  0  0  0  0
  5  6  1  0  0  0  0
  5 16  1  0  0  0  0
  6  7  2  0  0  0  0
  6 11  1  0  0  0  0
  7  8  1  0  0  0  0
  8  9  2  0  0  0  0
  9 10  1  0  0  0  0
  9 14  1  0  0  0  0
 10 11  2  0  0  0  0
 11 12  1  0  0  0  0
 12 13  1  0  0  0  0
 14 15  1  0  0  0  0
 16 17  1  0  0  0  0
 17 18  1  0  0  0  0
M  END
>  <DSSTox_RID>
20486

>  <DSSTox_CID>
486

>  <DSSTox_Generic_SID>
20486

>  <DSSTox_FileID>
508_CPDBAS_v5d

>  <STRUCTURE_Formula>
C14H14O4

>  <STRUCTURE_MolecularWeight>
246.2622

>  <STRUCTURE_ChemicalType>
defined organic

>  <STRUCTURE_TestedForm_DefinedOrganic>
parent

>  <STRUCTURE_Shown>
tested chemical

>  <TestSubstance_ChemicalName>
5,7-Dimethoxycyclopentene[c]coumarin

>  <TestSubstance_CASRN>
1146-71-0

>  <TestSubstance_Description>
single chemical compound

>  <STRUCTURE_ChemicalName_IUPAC>
7,9-bis(methyloxy)-2,3-dihydrocyclopenta[c]chromen-4(1H)-one

>  <STRUCTURE_SMILES>
O1C(=O)/C2=C(\C3=C1C=C(C=C3OC)OC)CCC2

>  <STRUCTURE_Parent_SMILES>
O1C(=O)/C2=C(\C3=C1C=C(C=C3OC)OC)CCC2

>  <STRUCTURE_InChI>
InChI=1/C14H14O4/c1-16-8-6-11(17-2)13-9-4-3-5-10(9)14(15)18-12(13)7-8/h6-7H,3-5H2,1-2H3

>  <STRUCTURE_InChIKey>
DGLJLGBVHRQILR-UHFFFAOYAR

>  <StudyType>
Carcinogenicity

>  <Endpoint>
TD50; Tumor Target Sites

>  <Species>
rat

>  <ActivityScore_CPDBAS_Rat>
0

>  <TD50_Rat_Note>
no positive results

>  <TargetSites_Rat_Male>
no positive results

>  <ActivityOutcome_CPDBAS_Rat>
inactive

>  <ActivityOutcome_CPDBAS_SingleCellCall>
inactive

>  <ChemicalPage_URL>
http://potency.berkeley.edu/chempages/5,7-DIMETHOXYCYCLOPENTENE[c]COUMARIN.html

$$$$



 19 21  0  0  0  0  0  0  0  0999 V2000
    2.3535   -3.2741    0.0000 C   0  0  0  0  0  0  0  0  0  0  0  0
    1.1730   -4.0017    0.0000 C   0  0  0  0  0  0  0  0  0  0  0  0
    1.1730   -5.3900    0.0000 C   0  0  0  0  0  0  0  0  0  0  0  0
    2.3535   -6.0433    0.0000 C   0  0  0  0  0  0  0  0  0  0  0  0
    3.5339   -5.3157    0.0000 C   0  0  0  0  0  0  0  0  0  0  0  0
    3.5339   -3.9348    0.0000 C   0  0  0  0  0  0  0  0  0  0  0  0
    4.6921   -3.2741    0.0000 C   0  0  0  0  0  0  0  0  0  0  0  0
    4.6921   -1.9155    0.0000 C   0  0  0  0  0  0  0  0  0  0  0  0
    3.5339   -1.2621    0.0000 C   0  0  0  0  0  0  0  0  0  0  0  0
    2.3535   -1.9155    0.0000 O   0  0  0  0  0  0  0  0  0  0  0  0
    5.9839   -3.6898    0.0000 C   0  0  0  0  0  0  0  0  0  0  0  0
    6.7783   -2.5985    0.0000 C   0  0  0  0  0  0  0  0  0  0  0  0
    5.9839   -1.4997    0.0000 C   0  0  0  0  0  0  0  0  0  0  0  0
    3.5339    0.0000    0.0000 O   0  0  0  0  0  0  0  0  0  0  0  0
    4.6253   -6.0879    0.0000 O   0  0  0  0  0  0  0  0  0  0  0  0
    5.8354   -5.5311    0.0000 C   0  0  0  0  0  0  0  0  0  0  0  0
    0.0000   -6.0656    0.0000 O   0  0  0  0  0  0  0  0  0  0  0  0
    0.0000   -7.4242    0.0000 C   0  0  0  0  0  0  0  0  0  0  0  0
    6.1547   -4.5659    0.0000 O   0  0  0  0  0  0  0  0  0  0  0  0
  1  2  2  0  0  0  0
  1  6  1  0  0  0  0
  1 10  1  0  0  0  0
  2  3  1  0  0  0  0
  3  4  2  0  0  0  0
  3 17  1  0  0  0  0
  4  5  1  0  0  0  0
  5  6  2  0  0  0  0
  5 15  1  0  0  0  0
  6  7  1  0  0  0  0
  7  8  2  0  0  0  0
  7 11  1  0  0  0  0
  8  9  1  0  0  0  0
  8 13  1  0  0  0  0
  9 10  1  0  0  0  0
  9 14  2  0  0  0  0
 11 12  1  0  0  0  0
 11 19  2  0  0  0  0
 12 13  1  0  0  0  0
 15 16  1  0  0  0  0
 17 18  1  0  0  0  0
M  END
>  <DSSTox_RID>
20487

>  <DSSTox_CID>
487

>  <DSSTox_Generic_SID>
20487

>  <DSSTox_FileID>
509_CPDBAS_v5d

>  <STRUCTURE_Formula>
C14H12O5

>  <STRUCTURE_MolecularWeight>
260.2458

>  <STRUCTURE_ChemicalType>
defined organic

>  <STRUCTURE_TestedForm_DefinedOrganic>
parent

>  <STRUCTURE_Shown>
tested chemical

>  <TestSubstance_ChemicalName>
5,7-Dimethoxycyclopentenone[2,3-c]coumarin

>  <TestSubstance_CASRN>
1150-37-4

>  <TestSubstance_Description>
single chemical compound

>  <ChemicalNote>
synthetic aflatoxin analog

>  <STRUCTURE_ChemicalName_IUPAC>
7,9-bis(methyloxy)-2,3-dihydrocyclopenta[c]chromene-1,4-dione

>  <STRUCTURE_SMILES>
C12=CC(=CC(=C1C3=C(C(O2)=O)CCC3=O)OC)OC

>  <STRUCTURE_Parent_SMILES>
C12=CC(=CC(=C1C3=C(C(O2)=O)CCC3=O)OC)OC

>  <STRUCTURE_InChI>
InChI=1/C14H12O5/c1-17-7-5-10(18-2)13-11(6-7)19-14(16)8-3-4-9(15)12(8)13/h5-6H,3-4H2,1-2H3

>  <STRUCTURE_InChIKey>
JXDKCTHGAOIBAD-UHFFFAOYAG

>  <StudyType>
Carcinogenicity

>  <Endpoint>
TD50; Tumor Target Sites

>  <Species>
rat

>  <ActivityScore_CPDBAS_Rat>
0

>  <TD50_Rat_Note>
no positive results

>  <TargetSites_Rat_Male>
no positive results

>  <ActivityOutcome_CPDBAS_Rat>
inactive

>  <ActivityOutcome_CPDBAS_SingleCellCall>
inactive

>  <ChemicalPage_URL>
http://potency.berkeley.edu/chempages/5,7-DIMETHOXYCYCLOPENTENONE[2,3-c]COUMARIN.html

$$$$



 19 21  0  0  0  0  0  0  0  0999 V2000
    2.3437   -3.2604    0.0000 C   0  0  0  0  0  0  0  0  0  0  0  0
    1.1681   -3.9850    0.0000 C   0  0  0  0  0  0  0  0  0  0  0  0
    1.1681   -5.3675    0.0000 C   0  0  0  0  0  0  0  0  0  0  0  0
    2.3437   -6.0181    0.0000 C   0  0  0  0  0  0  0  0  0  0  0  0
    3.5192   -5.2936    0.0000 C   0  0  0  0  0  0  0  0  0  0  0  0
    3.5192   -3.9184    0.0000 C   0  0  0  0  0  0  0  0  0  0  0  0
    4.6725   -3.2604    0.0000 C   0  0  0  0  0  0  0  0  0  0  0  0
    4.6725   -1.9075    0.0000 C   0  0  0  0  0  0  0  0  0  0  0  0
    3.5192   -1.2569    0.0000 C   0  0  0  0  0  0  0  0  0  0  0  0
    2.3437   -1.9075    0.0000 O   0  0  0  0  0  0  0  0  0  0  0  0
    5.9590   -3.6745    0.0000 C   0  0  0  0  0  0  0  0  0  0  0  0
    6.7500   -2.5876    0.0000 C   0  0  0  0  0  0  0  0  0  0  0  0
    5.9590   -1.4934    0.0000 C   0  0  0  0  0  0  0  0  0  0  0  0
    6.2769   -0.5397    0.0000 O   0  0  0  0  0  0  0  0  0  0  0  0
    3.5192    0.0000    0.0000 O   0  0  0  0  0  0  0  0  0  0  0  0
    4.6060   -6.0625    0.0000 O   0  0  0  0  0  0  0  0  0  0  0  0
    5.8111   -5.5080    0.0000 C   0  0  0  0  0  0  0  0  0  0  0  0
    0.0000   -6.0403    0.0000 O   0  0  0  0  0  0  0  0  0  0  0  0
    0.0000   -7.3933    0.0000 C   0  0  0  0  0  0  0  0  0  0  0  0
  1  2  2  0  0  0  0
  1  6  1  0  0  0  0
  1 10  1  0  0  0  0
  2  3  1  0  0  0  0
  3  4  2  0  0  0  0
  3 18  1  0  0  0  0
  4  5  1  0  0  0  0
  5  6  2  0  0  0  0
  5 16  1  0  0  0  0
  6  7  1  0  0  0  0
  7  8  2  0  0  0  0
  7 11  1  0  0  0  0
  8  9  1  0  0  0  0
  8 13  1  0  0  0  0
  9 10  1  0  0  0  0
  9 15  2  0  0  0  0
 11 12  1  0  0  0  0
 12 13  1  0  0  0  0
 13 14  2  0  0  0  0
 16 17  1  0  0  0  0
 18 19  1  0  0  0  0
M  END
>  <DSSTox_RID>
20488

>  <DSSTox_CID>
488

>  <DSSTox_Generic_SID>
20488

>  <DSSTox_FileID>
510_CPDBAS_v5d

>  <STRUCTURE_Formula>
C14H12O5

>  <STRUCTURE_MolecularWeight>
260.2458

>  <STRUCTURE_ChemicalType>
defined organic

>  <STRUCTURE_TestedForm_DefinedOrganic>
parent

>  <STRUCTURE_Shown>
tested chemical

>  <TestSubstance_ChemicalName>
5,7-Dimethoxycyclopentenone[3,2-c] coumarin

>  <TestSubstance_CASRN>
1150-42-1

>  <TestSubstance_Description>
single chemical compound

>  <ChemicalNote>
synthetic aflatoxin analog

>  <STRUCTURE_ChemicalName_IUPAC>
7,9-bis(methyloxy)-1,2-dihydrocyclopenta[c]chromene-3,4-dione

>  <STRUCTURE_SMILES>
C12=CC(=CC(=C1C3=C(C(O2)=O)C(CC3)=O)OC)OC

>  <STRUCTURE_Parent_SMILES>
C12=CC(=CC(=C1C3=C(C(O2)=O)C(CC3)=O)OC)OC

>  <STRUCTURE_InChI>
InChI=1/C14H12O5/c1-17-7-5-10(18-2)13-8-3-4-9(15)12(8)14(16)19-11(13)6-7/h5-6H,3-4H2,1-2H3

>  <STRUCTURE_InChIKey>
HMUODERFGQSGSR-UHFFFAOYAI

>  <StudyType>
Carcinogenicity

>  <Endpoint>
TD50; Tumor Target Sites

>  <Species>
rat

>  <ActivityScore_CPDBAS_Rat>
0

>  <TD50_Rat_Note>
no positive results

>  <TargetSites_Rat_Male>
no positive results

>  <ActivityOutcome_CPDBAS_Rat>
inactive

>  <ActivityOutcome_CPDBAS_SingleCellCall>
inactive

>  <ChemicalPage_URL>
http://potency.berkeley.edu/chempages/5,7-DIMETHOXYCYCLOPENTENONE[3,2-c]COUMARIN.html

$$$$



 28 32  0  0  0  0  0  0  0  0999 V2000
    1.1473   -6.6541    0.0000 O   0  0  0  0  0  0  0  0  0  0  0  0
    2.3045   -5.9857    0.0000 C   0  0  0  0  0  0  0  0  0  0  0  0
    3.4517   -6.6541    0.0000 C   0  0  0  0  0  0  0  0  0  0  0  0
    4.6090   -5.9857    0.0000 C   0  0  0  0  0  0  0  0  0  0  0  0
    5.7562   -6.6541    0.0000 C   0  0  0  0  0  0  0  0  0  0  0  0
    5.7562   -7.9809    0.0000 C   0  0  0  0  0  0  0  0  0  0  0  0
    4.6090   -8.6493    0.0000 C   0  0  0  0  0  0  0  0  0  0  0  0
    3.4517   -7.9809    0.0000 C   0  0  0  0  0  0  0  0  0  0  0  0
    2.3045   -8.6493    0.0000 O   0  0  0  0  0  0  0  0  0  0  0  0
    2.3045   -9.9761    0.0000 C   0  0  0  0  0  0  0  0  0  0  0  0
    7.0232   -8.3899    0.0000 O   0  0  0  0  0  0  0  0  0  0  0  0
    7.8113   -7.3125    0.0000 C   0  0  3  0  0  0  0  0  0  0  0  0
    7.0232   -6.2351    0.0000 C   0  0  3  0  0  0  0  0  0  0  0  0
    7.8113   -5.1676    0.0000 C   0  0  0  0  0  0  0  0  0  0  0  0
    9.0683   -5.5767    0.0000 C   0  0  0  0  0  0  0  0  0  0  0  0
    9.0683   -6.9035    0.0000 O   0  0  0  0  0  0  0  0  0  0  0  0
    4.6090   -4.6589    0.0000 O   0  0  0  0  0  0  0  0  0  0  0  0
    3.4517   -3.9905    0.0000 C   0  0  0  0  0  0  0  0  0  0  0  0
    2.3045   -4.6589    0.0000 C   0  0  0  0  0  0  0  0  0  0  0  0
    1.1473   -3.9905    0.0000 C   0  0  0  0  0  0  0  0  0  0  0  0
    1.1473   -2.6636    0.0000 C   0  0  0  0  0  0  0  0  0  0  0  0
    2.3045   -1.9952    0.0000 C   0  0  0  0  0  0  0  0  0  0  0  0
    3.4517   -2.6636    0.0000 C   0  0  0  0  0  0  0  0  0  0  0  0
    4.6090   -1.9952    0.0000 O   0  0  0  0  0  0  0  0  0  0  0  0
    4.6090   -0.6684    0.0000 C   0  0  0  0  0  0  0  0  0  0  0  0
    2.3045   -0.6684    0.0000 O   0  0  0  0  0  0  0  0  0  0  0  0
    1.1473    0.0000    0.0000 C   0  0  0  0  0  0  0  0  0  0  0  0
    0.0000   -4.6589    0.0000 O   0  0  0  0  0  0  0  0  0  0  0  0
  1  2  2  0  0  0  0
  2  3  1  0  0  0  0
  2 19  1  0  0  0  0
  3  4  2  0  0  0  0
  3  8  1  0  0  0  0
  4  5  1  0  0  0  0
  4 17  1  0  0  0  0
  5  6  2  0  0  0  0
  5 13  1  0  0  0  0
  6  7  1  0  0  0  0
  6 11  1  0  0  0  0
  7  8  2  0  0  0  0
  8  9  1  0  0  0  0
  9 10  1  0  0  0  0
 11 12  1  0  0  0  0
 12 13  1  0  0  0  0
 12 16  1  0  0  0  0
 13 14  1  0  0  0  0
 14 15  2  0  0  0  0
 15 16  1  0  0  0  0
 17 18  1  0  0  0  0
 18 19  2  0  0  0  0
 18 23  1  0  0  0  0
 19 20  1  0  0  0  0
 20 21  2  0  0  0  0
 20 28  1  0  0  0  0
 21 22  1  0  0  0  0
 22 23  2  0  0  0  0
 22 26  1  0  0  0  0
 23 24  1  0  0  0  0
 24 25  1  0  0  0  0
 26 27  1  0  0  0  0
M  END
>  <DSSTox_RID>
20489

>  <DSSTox_CID>
489

>  <DSSTox_Generic_SID>
20489

>  <DSSTox_FileID>
511_CPDBAS_v5d

>  <STRUCTURE_Formula>
C20H16O8

>  <STRUCTURE_MolecularWeight>
384.3416

>  <STRUCTURE_ChemicalType>
defined organic

>  <STRUCTURE_TestedForm_DefinedOrganic>
parent

>  <STRUCTURE_Shown>
tested chemical

>  <TestSubstance_ChemicalName>
5,6-Dimethoxysterigmatocystin

>  <TestSubstance_CASRN>
65176-75-2

>  <TestSubstance_Description>
single chemical compound

>  <STRUCTURE_ChemicalName_IUPAC>
8-hydroxy-6,10,11-tris(methyloxy)-3a,12c-dihydro-7H-furo[3',2':4,5]furo[2,3-c]xanthen-7-one

>  <STRUCTURE_SMILES>
O=C1C2=C(C3=C(C=C2OC)OC4C3C=CO4)OC5=C1C(=CC(=C5OC)OC)O

>  <STRUCTURE_Parent_SMILES>
O=C1C2=C(C3=C(C=C2OC)OC4C3C=CO4)OC5=C1C(=CC(=C5OC)OC)O

>  <STRUCTURE_InChI>
InChI=1/C20H16O8/c1-23-10-7-11-13(8-4-5-26-20(8)27-11)18-15(10)16(22)14-9(21)6-12(24-2)17(25-3)19(14)28-18/h4-8,20-21H,1-3H3

>  <STRUCTURE_InChIKey>
RSPJLZQIZABVSE-UHFFFAOYAZ

>  <StudyType>
Carcinogenicity

>  <Endpoint>
TD50; Tumor Target Sites

>  <Species>
rat

>  <TD50_Rat_mg>
0.364

>  <TD50_Rat_mmol>
0.000947

>  <ActivityScore_CPDBAS_Rat>
57

>  <TD50_Rat_Note>
TD50 value is overestimated as upper 99% confidence limit from study with 100% tumor incidence but no lifetable; harmonic mean of TD50 includes a value for upper 99% confidence limit from study with 100% tumor incidence but no lifetable

>  <TargetSites_Rat_Male>
liver

>  <ActivityOutcome_CPDBAS_Rat>
active

>  <ActivityOutcome_CPDBAS_SingleCellCall>
active

>  <ChemicalPage_URL>
http://potency.berkeley.edu/chempages/5,6-DIMETHOXYSTERIGMATOCYSTIN.html

$$$$



 13 12  0  0  0  0  0  0  0  0999 V2000
    3.9838   -8.0481    0.0000 C   0  0  0  0  0  0  0  0  0  0  0  0
    2.6559   -8.0481    0.0000 O   0  0  0  0  0  0  0  0  0  0  0  0
    0.8370   -7.5652    0.0000 S   0  0  0  0  0  0  0  0  0  0  0  0
    1.9959   -6.8972    0.0000 P   0  0  0  0  0  0  0  0  0  0  0  0
    1.3199   -5.7544    0.0000 S   0  0  0  0  0  0  0  0  0  0  0  0
    1.9959   -4.6035    0.0000 C   0  0  0  0  0  0  0  0  0  0  0  0
    1.3199   -3.4446    0.0000 C   0  0  0  0  0  0  0  0  0  0  0  0
    1.9959   -2.2937    0.0000 N   0  0  0  0  0  0  0  0  0  0  0  0
    0.0000   -1.1509    0.0000 C   0  0  0  0  0  0  0  0  0  0  0  0
    1.3199   -1.1509    0.0000 C   0  0  0  0  0  0  0  0  0  0  0  0
    1.9959    0.0000    0.0000 O   0  0  0  0  0  0  0  0  0  0  0  0
    3.1468   -6.2372    0.0000 O   0  0  0  0  0  0  0  0  0  0  0  0
    4.2896   -6.8972    0.0000 C   0  0  0  0  0  0  0  0  0  0  0  0
  1  2  1  0  0  0  0
  2  4  1  0  0  0  0
  3  4  2  0  0  0  0
  4  5  1  0  0  0  0
  4 12  1  0  0  0  0
  5  6  1  0  0  0  0
  6  7  1  0  0  0  0
  7  8  1  0  0  0  0
  8 10  1  0  0  0  0
  9 10  1  0  0  0  0
 10 11  2  0  0  0  0
 12 13  1  0  0  0  0
M  END
>  <DSSTox_RID>
20490

>  <DSSTox_CID>
490

>  <DSSTox_Generic_SID>
20490

>  <DSSTox_FileID>
512_CPDBAS_v5d

>  <STRUCTURE_Formula>
C6H14NO3PS2

>  <STRUCTURE_MolecularWeight>
243.284

>  <STRUCTURE_ChemicalType>
defined organic

>  <STRUCTURE_TestedForm_DefinedOrganic>
parent

>  <STRUCTURE_Shown>
tested chemical

>  <TestSubstance_ChemicalName>
O,O-Dimethyl S-2(acetylamino)ethyl dithiophosphate, technical grade

>  <TestSubstance_CASRN>
13265-60-6

>  <TestSubstance_Description>
single chemical compound

>  <STRUCTURE_ChemicalName_IUPAC>
S-[2-(acetylamino)ethyl] O,O-dimethyl dithiophosphate

>  <STRUCTURE_SMILES>
O=C(C)NCCSP(=S)(OC)OC

>  <STRUCTURE_Parent_SMILES>
O=C(C)NCCSP(=S)(OC)OC

>  <STRUCTURE_InChI>
InChI=1/C6H14NO3PS2/c1-6(8)7-4-5-13-11(12,9-2)10-3/h4-5H2,1-3H3,(H,7,8)/f/h7H

>  <STRUCTURE_InChIKey>
BETVNUCOOCCCIO-QDQILVOLCV

>  <StudyType>
Carcinogenicity

>  <Endpoint>
TD50; Tumor Target Sites

>  <Species>
rat

>  <ActivityScore_CPDBAS_Rat>
0

>  <TD50_Rat_Note>
no positive results

>  <TargetSites_Rat_Male>
no positive results

>  <TargetSites_Rat_Female>
no positive results

>  <ActivityOutcome_CPDBAS_Rat>
inactive

>  <ActivityOutcome_CPDBAS_SingleCellCall>
inactive

>  <ActivityOutcome_CPDBAS_MultiCellCall>
inactive

>  <ActivityOutcome_CPDBAS_MultiCellCall_Details>
multisex inactive

>  <Note_CPDBAS>
Rat added v2a

>  <ChemicalPage_URL>
http://potency.berkeley.edu/chempages/O,O-DIMETHYL%20S-2(ACETYLAMINO)ETHYL%20DITHIOPHOSPHATE.html

$$$$



 17 18  0  0  0  0  0  0  0  0999 V2000
    0.0000   -3.4549    0.0000 C   0  0  0  0  0  0  0  0  0  0  0  0
    0.6591   -2.3068    0.0000 N   0  0  0  0  0  0  0  0  0  0  0  0
    1.9879   -2.3068    0.0000 C   0  0  0  0  0  0  0  0  0  0  0  0
    2.6576   -1.1481    0.0000 C   0  0  0  0  0  0  0  0  0  0  0  0
    3.9864   -1.1481    0.0000 C   0  0  0  0  0  0  0  0  0  0  0  0
    4.6561   -2.3068    0.0000 C   0  0  0  0  0  0  0  0  0  0  0  0
    3.9864   -3.4549    0.0000 C   0  0  0  0  0  0  0  0  0  0  0  0
    2.6576   -3.4549    0.0000 C   0  0  0  0  0  0  0  0  0  0  0  0
    5.9849   -2.3068    0.0000 N   0  0  0  0  0  0  0  0  0  0  0  0
    6.6440   -1.1481    0.0000 N   0  0  0  0  0  0  0  0  0  0  0  0
    7.9728   -1.1481    0.0000 C   0  0  0  0  0  0  0  0  0  0  0  0
    8.6425    0.0000    0.0000 C   0  0  0  0  0  0  0  0  0  0  0  0
    9.9606    0.0000    0.0000 C   0  0  0  0  0  0  0  0  0  0  0  0
   10.6303   -1.1481    0.0000 C   0  0  0  0  0  0  0  0  0  0  0  0
    9.9606   -2.3068    0.0000 C   0  0  0  0  0  0  0  0  0  0  0  0
    8.6425   -2.3068    0.0000 C   0  0  0  0  0  0  0  0  0  0  0  0
    0.0000   -1.1481    0.0000 C   0  0  0  0  0  0  0  0  0  0  0  0
  1  2  1  0  0  0  0
  2  3  1  0  0  0  0
  2 17  1  0  0  0  0
  3  4  2  0  0  0  0
  3  8  1  0  0  0  0
  4  5  1  0  0  0  0
  5  6  2  0  0  0  0
  6  7  1  0  0  0  0
  6  9  1  0  0  0  0
  7  8  2  0  0  0  0
  9 10  2  0  0  0  0
 10 11  1  0  0  0  0
 11 12  2  0  0  0  0
 11 16  1  0  0  0  0
 12 13  1  0  0  0  0
 13 14  2  0  0  0  0
 14 15  1  0  0  0  0
 15 16  2  0  0  0  0
M  END
>  <DSSTox_RID>
20491

>  <DSSTox_CID>
491

>  <DSSTox_Generic_SID>
20491

>  <DSSTox_FileID>
513_CPDBAS_v5d

>  <STRUCTURE_Formula>
C14H15N3

>  <STRUCTURE_MolecularWeight>
225.289

>  <STRUCTURE_ChemicalType>
defined organic

>  <STRUCTURE_TestedForm_DefinedOrganic>
parent

>  <STRUCTURE_Shown>
tested chemical

>  <TestSubstance_ChemicalName>
N,N-Dimethyl-4-aminoazobenzene

>  <TestSubstance_CASRN>
60-11-7

>  <TestSubstance_Description>
single chemical compound

>  <STRUCTURE_ChemicalName_IUPAC>
N,N-dimethyl-4-[(E)-phenyldiazenyl]aniline

>  <STRUCTURE_SMILES>
CN(C1=CC=C(C=C1)/N=N/C2=CC=CC=C2)C

>  <STRUCTURE_Parent_SMILES>
CN(C1=CC=C(C=C1)/N=N/C2=CC=CC=C2)C

>  <STRUCTURE_InChI>
InChI=1/C14H15N3/c1-17(2)14-10-8-13(9-11-14)16-15-12-6-4-3-5-7-12/h3-11H,1-2H3/b16-15+

>  <STRUCTURE_InChIKey>
JCYPECIVGRXBMO-FOCLMDBBBF

>  <StudyType>
Carcinogenicity

>  <Endpoint>
TD50; Tumor Target Sites

>  <Species>
rat; rhesus

>  <ActivityOutcome_CPDBAS_Mutagenicity>
active

>  <TD50_Rat_mg>
3.31

>  <TD50_Rat_mmol>
0.0147

>  <ActivityScore_CPDBAS_Rat>
45

>  <TargetSites_Rat_Female>
liver

>  <ActivityOutcome_CPDBAS_Rat>
active

>  <TargetSites_Rhesus>
no positive results

>  <TD50_Dog_Primates_Note>
no positive results for Rhesus

>  <ActivityOutcome_CPDBAS_Dog_Primates>
inactive

>  <ActivityOutcome_CPDBAS_SingleCellCall>
active

>  <ChemicalPage_URL>
http://potency.berkeley.edu/chempages/N,N-DIMETHYL-4-AMINOAZOBENZENE.html

$$$$



 18 18  0  0  0  0  0  0  0  0999 V2000
    7.9794   -4.6089    0.0000 C   0  0  0  0  0  0  0  0  0  0  0  0
    7.3183   -3.4543    0.0000 N   0  0  0  0  0  0  0  0  0  0  0  0
    7.9794   -2.3091    0.0000 N   0  0  0  0  0  0  0  0  0  0  0  0
    9.3109   -2.3091    0.0000 O   0  0  0  0  0  0  0  0  0  0  0  0
    5.9869   -3.4543    0.0000 C   0  0  0  0  0  0  0  0  0  0  0  0
    5.3165   -4.6089    0.0000 O   0  0  0  0  0  0  0  0  0  0  0  0
    5.3165   -2.3091    0.0000 C   0  0  0  0  0  0  0  0  0  0  0  0
    3.9944   -2.3091    0.0000 C   0  0  0  0  0  0  0  0  0  0  0  0
    3.3240   -1.1545    0.0000 C   0  0  0  0  0  0  0  0  0  0  0  0
    3.9944    0.0000    0.0000 C   0  0  0  0  0  0  0  0  0  0  0  0
    5.3165    0.0000    0.0000 C   0  0  0  0  0  0  0  0  0  0  0  0
    5.9869   -1.1545    0.0000 C   0  0  0  0  0  0  0  0  0  0  0  0
    3.3240   -3.4543    0.0000 C   0  0  0  0  0  0  0  0  0  0  0  0
    3.9944   -4.6089    0.0000 O   0  0  0  0  0  0  0  0  0  0  0  0
    1.9925   -3.4543    0.0000 N   0  0  0  0  0  0  0  0  0  0  0  0
    1.3315   -4.6089    0.0000 C   0  0  0  0  0  0  0  0  0  0  0  0
    1.3315   -2.3091    0.0000 N   0  0  0  0  0  0  0  0  0  0  0  0
    0.0000   -2.3091    0.0000 O   0  0  0  0  0  0  0  0  0  0  0  0
  1  2  1  0  0  0  0
  2  3  1  0  0  0  0
  2  5  1  0  0  0  0
  3  4  2  0  0  0  0
  5  6  2  0  0  0  0
  5  7  1  0  0  0  0
  7  8  2  0  0  0  0
  7 12  1  0  0  0  0
  8  9  1  0  0  0  0
  8 13  1  0  0  0  0
  9 10  2  0  0  0  0
 10 11  1  0  0  0  0
 11 12  2  0  0  0  0
 13 14  2  0  0  0  0
 13 15  1  0  0  0  0
 15 16  1  0  0  0  0
 15 17  1  0  0  0  0
 17 18  2  0  0  0  0
M  END
>  <DSSTox_RID>
20492

>  <DSSTox_CID>
492

>  <DSSTox_Generic_SID>
20492

>  <DSSTox_FileID>
514_CPDBAS_v5d

>  <STRUCTURE_Formula>
C10H10N4O4

>  <STRUCTURE_MolecularWeight>
250.2134

>  <STRUCTURE_ChemicalType>
defined organic

>  <STRUCTURE_TestedForm_DefinedOrganic>
parent

>  <STRUCTURE_Shown>
tested chemical

>  <TestSubstance_ChemicalName>
N,N'-Dimethyl-N,N'-dinitrosophthalamide

>  <TestSubstance_CASRN>
3851-16-9

>  <TestSubstance_Description>
single chemical compound

>  <STRUCTURE_ChemicalName_IUPAC>
N,N'-dimethyl-N,N'-dinitrosobenzene-1,2-dicarboxamide

>  <STRUCTURE_SMILES>
CN(N=O)C(=O)C1=C(C=CC=C1)C(=O)N(C)N=O

>  <STRUCTURE_Parent_SMILES>
CN(N=O)C(=O)C1=C(C=CC=C1)C(=O)N(C)N=O

>  <STRUCTURE_InChI>
InChI=1/C10H10N4O4/c1-13(11-17)9(15)7-5-3-4-6-8(7)10(16)14(2)12-18/h3-6H,1-2H3

>  <STRUCTURE_InChIKey>
GOOMUPCAOADBSA-UHFFFAOYAI

>  <StudyType>
Carcinogenicity

>  <Endpoint>
TD50; Tumor Target Sites

>  <Species>
rat

>  <ActivityScore_CPDBAS_Rat>
0

>  <TD50_Rat_Note>
no positive results

>  <TargetSites_Rat_Male>
no positive results

>  <ActivityOutcome_CPDBAS_Rat>
inactive

>  <ActivityOutcome_CPDBAS_SingleCellCall>
inactive

>  <ChemicalPage_URL>
http://potency.berkeley.edu/chempages/N,N'-DIMETHYL-N,N'-DINITROSOPHTHALAMIDE.html

$$$$



  7  6  0  0  0  0  0  0  0  0999 V2000
    1.6373    0.0000    0.0000 O   0  0  0  0  0  0  0  0  0  0  0  0
    2.3034   -1.1517    0.0000 P   0  0  0  0  0  0  0  0  0  0  0  0
    3.4550   -0.4856    0.0000 H   0  0  0  0  0  0  0  0  0  0  0  0
    2.9694   -2.3034    0.0000 O   0  0  0  0  0  0  0  0  0  0  0  0
    4.2973   -2.3034    0.0000 C   0  0  0  0  0  0  0  0  0  0  0  0
    1.1517   -1.8178    0.0000 O   0  0  0  0  0  0  0  0  0  0  0  0
    0.0000   -1.1517    0.0000 C   0  0  0  0  0  0  0  0  0  0  0  0
  1  2  2  0  0  0  0
  2  3  1  0  0  0  0
  2  4  1  0  0  0  0
  2  6  1  0  0  0  0
  4  5  1  0  0  0  0
  6  7  1  0  0  0  0
M  END
>  <DSSTox_RID>
20493

>  <DSSTox_CID>
493

>  <DSSTox_Generic_SID>
20493

>  <DSSTox_FileID>
515_CPDBAS_v5d

>  <STRUCTURE_Formula>
C2H7O3P

>  <STRUCTURE_MolecularWeight>
110.0489

>  <STRUCTURE_ChemicalType>
defined organic

>  <STRUCTURE_TestedForm_DefinedOrganic>
parent

>  <STRUCTURE_Shown>
tested chemical

>  <TestSubstance_ChemicalName>
Dimethyl hydrogen phosphite

>  <TestSubstance_CASRN>
868-85-9

>  <TestSubstance_Description>
single chemical compound

>  <STRUCTURE_ChemicalName_IUPAC>
dimethyl phosphonate

>  <STRUCTURE_SMILES>
O=P(H)(OC)OC

>  <STRUCTURE_Parent_SMILES>
O=P(H)(OC)OC

>  <STRUCTURE_InChI>
InChI=1/C2H7O3P/c1-4-6(3)5-2/h6H,1-2H3

>  <STRUCTURE_InChIKey>
HZCDANOFLILNSA-UHFFFAOYAF

>  <StudyType>
Carcinogenicity

>  <Endpoint>
TD50; Tumor Target Sites

>  <Species>
rat; mouse

>  <ActivityOutcome_CPDBAS_Mutagenicity>
active

>  <TD50_Rat_mg>
139

>  <TD50_Rat_mmol>
1.26

>  <ActivityScore_CPDBAS_Rat>
25

>  <TargetSites_Rat_Male>
lung; stomach

>  <TargetSites_Rat_Female>
no positive results

>  <ActivityOutcome_CPDBAS_Rat>
active

>  <ActivityScore_CPDBAS_Mouse>
0

>  <TD50_Mouse_Note>
no positive results

>  <TargetSites_Mouse_Male>
no positive results

>  <TargetSites_Mouse_Female>
no positive results

>  <ActivityOutcome_CPDBAS_Mouse>
inactive

>  <ActivityOutcome_CPDBAS_SingleCellCall>
active

>  <ActivityOutcome_CPDBAS_MultiCellCall>
active

>  <ActivityOutcome_CPDBAS_MultiCellCall_Details>
multisite active

>  <NTP_TechnicalReport>
TR 287

>  <ChemicalPage_URL>
http://potency.berkeley.edu/chempages/DIMETHYL%20HYDROGEN%20PHOSPHITE.html

$$$$



  7  6  0  0  0  0  0  0  0  0999 V2000
    1.6373    0.0000    0.0000 C   0  0  0  0  0  0  0  0  0  0  0  0
    2.3034   -1.1517    0.0000 P   0  0  0  0  0  0  0  0  0  0  0  0
    3.4550   -0.4856    0.0000 O   0  0  0  0  0  0  0  0  0  0  0  0
    2.9694   -2.3034    0.0000 O   0  0  0  0  0  0  0  0  0  0  0  0
    4.2973   -2.3034    0.0000 C   0  0  0  0  0  0  0  0  0  0  0  0
    1.1517   -1.8178    0.0000 O   0  0  0  0  0  0  0  0  0  0  0  0
    0.0000   -1.1517    0.0000 C   0  0  0  0  0  0  0  0  0  0  0  0
  1  2  1  0  0  0  0
  2  3  2  0  0  0  0
  2  4  1  0  0  0  0
  2  6  1  0  0  0  0
  4  5  1  0  0  0  0
  6  7  1  0  0  0  0
M  END
>  <DSSTox_RID>
20494

>  <DSSTox_CID>
494

>  <DSSTox_Generic_SID>
20494

>  <DSSTox_FileID>
516_CPDBAS_v5d

>  <STRUCTURE_Formula>
C3H9O3P

>  <STRUCTURE_MolecularWeight>
124.0755

>  <STRUCTURE_ChemicalType>
defined organic

>  <STRUCTURE_TestedForm_DefinedOrganic>
parent

>  <STRUCTURE_Shown>
tested chemical

>  <TestSubstance_ChemicalName>
Dimethyl methylphosphonate

>  <TestSubstance_CASRN>
756-79-6

>  <TestSubstance_Description>
single chemical compound

>  <STRUCTURE_ChemicalName_IUPAC>
dimethyl methylphosphonate

>  <STRUCTURE_SMILES>
CP(=O)(OC)OC

>  <STRUCTURE_Parent_SMILES>
CP(=O)(OC)OC

>  <STRUCTURE_InChI>
InChI=1/C3H9O3P/c1-5-7(3,4)6-2/h1-3H3

>  <STRUCTURE_InChIKey>
VONWDASPFIQPDY-UHFFFAOYAG

>  <StudyType>
Carcinogenicity

>  <Endpoint>
TD50; Tumor Target Sites

>  <Species>
rat; mouse

>  <ActivityOutcome_CPDBAS_Mutagenicity>
inactive

>  <TD50_Rat_mg>
700

>  <TD50_Rat_mmol>
5.64

>  <ActivityScore_CPDBAS_Rat>
18

>  <TargetSites_Rat_Male>
kidney

>  <TargetSites_Rat_Female>
no positive results

>  <ActivityOutcome_CPDBAS_Rat>
active

>  <ActivityScore_CPDBAS_Mouse>
0

>  <TD50_Mouse_Note>
no positive results

>  <TargetSites_Mouse_Male>
NTP bioassay inadequate

>  <TargetSites_Mouse_Female>
no positive results

>  <ActivityOutcome_CPDBAS_Mouse>
inactive

>  <ActivityOutcome_CPDBAS_SingleCellCall>
active

>  <NTP_TechnicalReport>
TR 323

>  <ChemicalPage_URL>
http://potency.berkeley.edu/chempages/DIMETHYL%20METHYLPHOSPHONATE.html

$$$$



 12 12  0  0  0  0  0  0  0  0999 V2000
    3.9931   -1.9996    0.0000 P   0  0  0  0  0  0  0  0  0  0  0  0
    3.9931   -3.3286    0.0000 O   0  0  0  0  0  0  0  0  0  0  0  0
    3.9931   -0.6705    0.0000 O   0  0  0  0  0  0  0  0  0  0  0  0
    5.1426    0.0000    0.0000 C   0  0  0  0  0  0  0  0  0  0  0  0
    5.3222   -1.9996    0.0000 O   0  0  0  0  0  0  0  0  0  0  0  0
    5.9867   -3.1490    0.0000 C   0  0  0  0  0  0  0  0  0  0  0  0
    2.6581   -1.9996    0.0000 N   0  0  0  0  0  0  0  0  0  0  0  0
    1.9936   -3.1490    0.0000 C   0  0  0  0  0  0  0  0  0  0  0  0
    0.6645   -3.1490    0.0000 C   0  0  0  0  0  0  0  0  0  0  0  0
    0.0000   -1.9996    0.0000 O   0  0  0  0  0  0  0  0  0  0  0  0
    0.6645   -0.8441    0.0000 C   0  0  0  0  0  0  0  0  0  0  0  0
    1.9936   -0.8441    0.0000 C   0  0  0  0  0  0  0  0  0  0  0  0
  1  2  2  0  0  0  0
  1  3  1  0  0  0  0
  1  5  1  0  0  0  0
  1  7  1  0  0  0  0
  3  4  1  0  0  0  0
  5  6  1  0  0  0  0
  7  8  1  0  0  0  0
  7 12  1  0  0  0  0
  8  9  1  0  0  0  0
  9 10  1  0  0  0  0
 10 11  1  0  0  0  0
 11 12  1  0  0  0  0
M  END
>  <DSSTox_RID>
20495

>  <DSSTox_CID>
495

>  <DSSTox_Generic_SID>
20495

>  <DSSTox_FileID>
517_CPDBAS_v5d

>  <STRUCTURE_Formula>
C6H14NO4P

>  <STRUCTURE_MolecularWeight>
195.1534

>  <STRUCTURE_ChemicalType>
defined organic

>  <STRUCTURE_TestedForm_DefinedOrganic>
parent

>  <STRUCTURE_Shown>
tested chemical

>  <TestSubstance_ChemicalName>
Dimethyl morpholinophosphoramidate

>  <TestSubstance_CASRN>
597-25-1

>  <TestSubstance_Description>
single chemical compound

>  <STRUCTURE_ChemicalName_IUPAC>
dimethyl morpholin-4-ylphosphonate

>  <STRUCTURE_SMILES>
P(=O)(OC)(OC)N1CCOCC1

>  <STRUCTURE_Parent_SMILES>
P(=O)(OC)(OC)N1CCOCC1

>  <STRUCTURE_InChI>
InChI=1/C6H14NO4P/c1-9-12(8,10-2)7-3-5-11-6-4-7/h3-6H2,1-2H3

>  <STRUCTURE_InChIKey>
BZXUQIDKDGGYPB-UHFFFAOYAQ

>  <StudyType>
Carcinogenicity

>  <Endpoint>
TD50; Tumor Target Sites

>  <Species>
rat; mouse

>  <ActivityOutcome_CPDBAS_Mutagenicity>
inactive

>  <TD50_Rat_mg>
614

>  <TD50_Rat_mmol>
3.15

>  <ActivityScore_CPDBAS_Rat>
21

>  <TD50_Rat_Note>
TD50 is harmonic mean of more than one positive test

>  <TargetSites_Rat_Male>
hematopoietic system

>  <TargetSites_Rat_Female>
hematopoietic system

>  <ActivityOutcome_CPDBAS_Rat>
active

>  <ActivityScore_CPDBAS_Mouse>
0

>  <TD50_Mouse_Note>
no positive results

>  <TargetSites_Mouse_Male>
no positive results

>  <TargetSites_Mouse_Female>
no positive results

>  <ActivityOutcome_CPDBAS_Mouse>
inactive

>  <ActivityOutcome_CPDBAS_SingleCellCall>
active

>  <ActivityOutcome_CPDBAS_MultiCellCall>
active

>  <ActivityOutcome_CPDBAS_MultiCellCall_Details>
multisex active

>  <NTP_TechnicalReport>
TR 298

>  <ChemicalPage_URL>
http://potency.berkeley.edu/chempages/DIMETHYL%20MORPHOLINOPHOSPHORAMIDATE.html

$$$$



 16 17  0  0  0  0  0  0  0  0999 V2000
    7.6582   -1.6149    0.0000 C   0  0  0  0  0  0  0  0  0  0  0  0
    8.3241   -2.7636    0.0000 C   0  0  0  0  0  0  0  0  0  0  0  0
    7.6582   -3.9207    0.0000 C   0  0  0  0  0  0  0  0  0  0  0  0
    6.3263   -3.9207    0.0000 N   0  0  0  0  0  0  0  0  0  0  0  0
    5.6687   -2.7636    0.0000 C   0  0  0  0  0  0  0  0  0  0  0  0
    6.3263   -1.6149    0.0000 N   0  0  0  0  0  0  0  0  0  0  0  0
    4.3369   -2.7636    0.0000 C   0  0  0  0  0  0  0  0  0  0  0  0
    3.5544   -3.8457    0.0000 C   0  0  0  0  0  0  0  0  0  0  0  0
    2.2891   -3.4295    0.0000 C   0  0  0  0  0  0  0  0  0  0  0  0
    2.2891   -2.1060    0.0000 C   0  0  0  0  0  0  0  0  0  0  0  0
    3.5544   -1.6898    0.0000 O   0  0  0  0  0  0  0  0  0  0  0  0
    1.2153   -1.3235    0.0000 N   0  3  0  0  0  0  0  0  0  0  0  0
    0.0000   -1.8646    0.0000 O   0  5  0  0  0  0  0  0  0  0  0  0
    1.3568    0.0000    0.0000 O   0  0  0  0  0  0  0  0  0  0  0  0
    8.3241   -5.0694    0.0000 C   0  0  0  0  0  0  0  0  0  0  0  0
    8.3241   -0.4661    0.0000 C   0  0  0  0  0  0  0  0  0  0  0  0
  1  2  2  0  0  0  0
  1  6  1  0  0  0  0
  1 16  1  0  0  0  0
  2  3  1  0  0  0  0
  3  4  2  0  0  0  0
  3 15  1  0  0  0  0
  4  5  1  0  0  0  0
  5  6  2  0  0  0  0
  5  7  1  0  0  0  0
  7  8  2  0  0  0  0
  7 11  1  0  0  0  0
  8  9  1  0  0  0  0
  9 10  2  0  0  0  0
 10 11  1  0  0  0  0
 10 12  1  0  0  0  0
 12 13  1  0  0  0  0
 12 14  2  0  0  0  0
M  END
>  <DSSTox_RID>
20496

>  <DSSTox_CID>
496

>  <DSSTox_Generic_SID>
20496

>  <DSSTox_FileID>
518_CPDBAS_v5d

>  <STRUCTURE_Formula>
C10H9N3O3

>  <STRUCTURE_MolecularWeight>
219.1994

>  <STRUCTURE_ChemicalType>
defined organic

>  <STRUCTURE_TestedForm_DefinedOrganic>
parent

>  <STRUCTURE_Shown>
tested chemical

>  <TestSubstance_ChemicalName>
4,6-Dimethyl-2-(5-nitro-2-furyl) pyrimidine

>  <TestSubstance_CASRN>
59-35-8

>  <TestSubstance_Description>
single chemical compound

>  <STRUCTURE_ChemicalName_IUPAC>
4,6-dimethyl-2-(5-nitrofuran-2-yl)pyrimidine

>  <STRUCTURE_SMILES>
C1(=CC(=NC(=N1)C2=CC=C(O2)[N+]([O-])=O)C)C

>  <STRUCTURE_Parent_SMILES>
C1(=CC(=NC(=N1)C2=CC=C(O2)[N+]([O-])=O)C)C

>  <STRUCTURE_InChI>
InChI=1/C10H9N3O3/c1-6-5-7(2)12-10(11-6)8-3-4-9(16-8)13(14)15/h3-5H,1-2H3

>  <STRUCTURE_InChIKey>
RYBISXUKVTYYNN-UHFFFAOYAK

>  <StudyType>
Carcinogenicity

>  <Endpoint>
TD50; Tumor Target Sites

>  <Species>
rat

>  <TD50_Rat_mg>
1.39

>  <TD50_Rat_mmol>
0.00634

>  <ActivityScore_CPDBAS_Rat>
48

>  <TD50_Rat_Note>
harmonic mean of TD50 includes a value for upper 99% confidence limit from study with 100% tumor incidence but no lifetable

>  <TargetSites_Rat_Female>
kidney; mammary gland; small intestine; stomach; vascular system

>  <ActivityOutcome_CPDBAS_Rat>
active

>  <ActivityOutcome_CPDBAS_SingleCellCall>
active

>  <ActivityOutcome_CPDBAS_MultiCellCall>
active

>  <ActivityOutcome_CPDBAS_MultiCellCall_Details>
multisite active

>  <Note_CPDBAS>
TD50_Rat_Note modified v5a

>  <ChemicalPage_URL>
http://potency.berkeley.edu/chempages/4,6-DIMETHYL-2-(5-NITRO-2-FURYL)PYRIMIDINE.html

$$$$



 10 10  0  0  0  0  0  0  0  0999 V2000
    2.3044   -1.9948    0.0000 C   0  0  0  0  0  0  0  0  0  0  0  0
    3.5196   -1.4560    0.0000 N   0  0  0  0  0  0  0  0  0  0  0  0
    4.4081   -2.4420    0.0000 C   0  0  0  0  0  0  0  0  0  0  0  0
    5.7323   -2.3044    0.0000 C   0  0  0  0  0  0  0  0  0  0  0  0
    3.7432   -3.5942    0.0000 N   0  0  0  0  0  0  0  0  0  0  0  0
    2.4420   -3.3190    0.0000 C   0  0  0  0  0  0  0  0  0  0  0  0
    3.7948   -0.1548    0.0000 C   0  0  0  0  0  0  0  0  0  0  0  0
    1.1522   -1.3299    0.0000 N   0  3  0  0  0  0  0  0  0  0  0  0
    1.1522    0.0000    0.0000 O   0  0  0  0  0  0  0  0  0  0  0  0
    0.0000   -1.9948    0.0000 O   0  5  0  0  0  0  0  0  0  0  0  0
  1  2  1  0  0  0  0
  1  6  2  0  0  0  0
  1  8  1  0  0  0  0
  2  3  1  0  0  0  0
  2  7  1  0  0  0  0
  3  4  1  0  0  0  0
  3  5  2  0  0  0  0
  5  6  1  0  0  0  0
  8  9  2  0  0  0  0
  8 10  1  0  0  0  0
M  END
>  <DSSTox_RID>
20497

>  <DSSTox_CID>
497

>  <DSSTox_Generic_SID>
20497

>  <DSSTox_FileID>
519_CPDBAS_v5d

>  <STRUCTURE_Formula>
C5H7N3O2

>  <STRUCTURE_MolecularWeight>
141.1292

>  <STRUCTURE_ChemicalType>
defined organic

>  <STRUCTURE_TestedForm_DefinedOrganic>
parent

>  <STRUCTURE_Shown>
tested chemical

>  <TestSubstance_ChemicalName>
1,2-Dimethyl-5-nitroimidazole

>  <TestSubstance_CASRN>
551-92-8

>  <TestSubstance_Description>
single chemical compound

>  <STRUCTURE_ChemicalName_IUPAC>
1,2-dimethyl-5-nitro-1H-imidazole

>  <STRUCTURE_SMILES>
C1(N(C(C)=NC=1)C)[N+](=O)[O-]

>  <STRUCTURE_Parent_SMILES>
C1(N(C(C)=NC=1)C)[N+](=O)[O-]

>  <STRUCTURE_InChI>
InChI=1/C5H7N3O2/c1-4-6-3-5(7(4)2)8(9)10/h3H,1-2H3

>  <STRUCTURE_InChIKey>
IBXPYPUJPLLOIN-UHFFFAOYAK

>  <StudyType>
Carcinogenicity

>  <Endpoint>
TD50; Tumor Target Sites

>  <Species>
rat

>  <ActivityOutcome_CPDBAS_Mutagenicity>
active

>  <TD50_Rat_mg>
17

>  <TD50_Rat_mmol>
0.12

>  <ActivityScore_CPDBAS_Rat>
35

>  <TargetSites_Rat_Female>
mammary gland

>  <ActivityOutcome_CPDBAS_Rat>
active

>  <ActivityOutcome_CPDBAS_SingleCellCall>
active

>  <ChemicalPage_URL>
http://potency.berkeley.edu/chempages/1,2-DIMETHYL-5-NITROIMIDAZOLE.html

$$$$



 14 14  0  0  0  0  0  0  0  0999 V2000
    6.6460   -3.4559    0.0000 O   0  0  0  0  0  0  0  0  0  0  0  0
    5.9814   -2.3062    0.0000 C   0  0  0  0  0  0  0  0  0  0  0  0
    4.6522   -2.3062    0.0000 C   0  0  0  0  0  0  0  0  0  0  0  0
    3.9876   -3.4559    0.0000 C   0  0  0  0  0  0  0  0  0  0  0  0
    2.6584   -3.4559    0.0000 C   0  0  0  0  0  0  0  0  0  0  0  0
    1.9938   -2.3062    0.0000 C   0  0  0  0  0  0  0  0  0  0  0  0
    2.6584   -1.1498    0.0000 C   0  0  0  0  0  0  0  0  0  0  0  0
    3.9876   -1.1498    0.0000 C   0  0  0  0  0  0  0  0  0  0  0  0
    0.6646   -2.3062    0.0000 C   0  0  0  0  0  0  0  0  0  0  0  0
    0.0000   -1.1498    0.0000 O   0  0  0  0  0  0  0  0  0  0  0  0
    0.0000   -3.4559    0.0000 O   0  0  0  0  0  0  0  0  0  0  0  0
    0.6646   -4.6057    0.0000 C   0  0  0  0  0  0  0  0  0  0  0  0
    6.6460   -1.1498    0.0000 O   0  0  0  0  0  0  0  0  0  0  0  0
    5.9814    0.0000    0.0000 C   0  0  0  0  0  0  0  0  0  0  0  0
  1  2  2  0  0  0  0
  2  3  1  0  0  0  0
  2 13  1  0  0  0  0
  3  4  2  0  0  0  0
  3  8  1  0  0  0  0
  4  5  1  0  0  0  0
  5  6  2  0  0  0  0
  6  7  1  0  0  0  0
  6  9  1  0  0  0  0
  7  8  2  0  0  0  0
  9 10  2  0  0  0  0
  9 11  1  0  0  0  0
 11 12  1  0  0  0  0
 13 14  1  0  0  0  0
M  END
>  <DSSTox_RID>
20498

>  <DSSTox_CID>
498

>  <DSSTox_Generic_SID>
20498

>  <DSSTox_FileID>
520_CPDBAS_v5d

>  <STRUCTURE_Formula>
C10H10O4

>  <STRUCTURE_MolecularWeight>
194.184

>  <STRUCTURE_ChemicalType>
defined organic

>  <STRUCTURE_TestedForm_DefinedOrganic>
parent

>  <STRUCTURE_Shown>
tested chemical

>  <TestSubstance_ChemicalName>
Dimethyl terephthalate

>  <TestSubstance_CASRN>
120-61-6

>  <TestSubstance_Description>
single chemical compound

>  <STRUCTURE_ChemicalName_IUPAC>
dimethyl terephthalate

>  <STRUCTURE_SMILES>
O=C(C1=CC=C(C=C1)C(=O)OC)OC

>  <STRUCTURE_Parent_SMILES>
O=C(C1=CC=C(C=C1)C(=O)OC)OC

>  <STRUCTURE_InChI>
InChI=1/C10H10O4/c1-13-9(11)7-3-5-8(6-4-7)10(12)14-2/h3-6H,1-2H3

>  <STRUCTURE_InChIKey>
WOZVHXUHUFLZGK-UHFFFAOYAP

>  <StudyType>
Carcinogenicity

>  <Endpoint>
TD50; Tumor Target Sites

>  <Species>
rat; mouse

>  <ActivityOutcome_CPDBAS_Mutagenicity>
inactive

>  <ActivityScore_CPDBAS_Rat>
0

>  <TD50_Rat_Note>
no positive results

>  <TargetSites_Rat_Male>
no positive results

>  <TargetSites_Rat_Female>
no positive results

>  <ActivityOutcome_CPDBAS_Rat>
inactive

>  <ActivityScore_CPDBAS_Mouse>
0

>  <TD50_Mouse_Note>
no positive results

>  <TargetSites_Mouse_Male>
no positive results

>  <TargetSites_Mouse_Female>
no positive results

>  <ActivityOutcome_CPDBAS_Mouse>
inactive

>  <ActivityOutcome_CPDBAS_SingleCellCall>
inactive

>  <ActivityOutcome_CPDBAS_MultiCellCall>
inactive

>  <ActivityOutcome_CPDBAS_MultiCellCall_Details>
multisex inactive; multispecies inactive

>  <ChemicalPage_URL>
http://potency.berkeley.edu/chempages/DIMETHYL%20TEREPHTHALATE.html

$$$$



  6  5  0  0  0  0  0  0  0  0999 V2000
    2.3053   -1.3272    0.0000 C   0  0  0  0  0  0  0  0  0  0  0  0
    1.1509   -2.0012    0.0000 N   0  0  0  0  0  0  0  0  0  0  0  0
    2.3053    0.0000    0.0000 O   0  0  0  0  0  0  0  0  0  0  0  0
    3.4563   -2.0012    0.0000 C   0  0  0  0  0  0  0  0  0  0  0  0
    1.1509   -3.3284    0.0000 C   0  0  0  0  0  0  0  0  0  0  0  0
    0.0000   -1.3445    0.0000 C   0  0  0  0  0  0  0  0  0  0  0  0
  1  2  1  0  0  0  0
  1  3  2  0  0  0  0
  1  4  1  0  0  0  0
  2  5  1  0  0  0  0
  2  6  1  0  0  0  0
M  END
>  <DSSTox_RID>
20499

>  <DSSTox_CID>
499

>  <DSSTox_Generic_SID>
20499

>  <DSSTox_FileID>
521_CPDBAS_v5d

>  <STRUCTURE_Formula>
C4H9NO

>  <STRUCTURE_MolecularWeight>
87.1204

>  <STRUCTURE_ChemicalType>
defined organic

>  <STRUCTURE_TestedForm_DefinedOrganic>
parent

>  <STRUCTURE_Shown>
tested chemical

>  <TestSubstance_ChemicalName>
Dimethylacetamide

>  <TestSubstance_CASRN>
127-19-5

>  <TestSubstance_Description>
single chemical compound

>  <STRUCTURE_ChemicalName_IUPAC>
N,N-dimethylacetamide

>  <STRUCTURE_SMILES>
CN(C)C(C)=O

>  <STRUCTURE_Parent_SMILES>
CN(C)C(C)=O

>  <STRUCTURE_InChI>
InChI=1/C4H9NO/c1-4(6)5(2)3/h1-3H3

>  <STRUCTURE_InChIKey>
FXHOOIRPVKKKFG-UHFFFAOYAE

>  <StudyType>
Carcinogenicity

>  <Endpoint>
TD50; Tumor Target Sites

>  <Species>
rat; mouse

>  <ActivityOutcome_CPDBAS_Mutagenicity>
inactive

>  <ActivityScore_CPDBAS_Rat>
0

>  <TD50_Rat_Note>
no positive results

>  <TargetSites_Rat_Male>
no positive results

>  <TargetSites_Rat_Female>
no positive results

>  <ActivityOutcome_CPDBAS_Rat>
inactive

>  <ActivityScore_CPDBAS_Mouse>
0

>  <TD50_Mouse_Note>
no positive results

>  <TargetSites_Mouse_Male>
no positive results

>  <TargetSites_Mouse_Female>
no positive results

>  <ActivityOutcome_CPDBAS_Mouse>
inactive

>  <ActivityOutcome_CPDBAS_SingleCellCall>
inactive

>  <ActivityOutcome_CPDBAS_MultiCellCall>
inactive

>  <ActivityOutcome_CPDBAS_MultiCellCall_Details>
multisex inactive; multispecies inactive

>  <Note_CPDBAS>
Rat added v2a; Mouse added v2a

>  <NTP_TechnicalReport>
TR 121

>  <ChemicalPage_URL>
http://potency.berkeley.edu/chempages/DIMETHYLACETAMIDE.html

$$$$



 20 21  0  0  0  0  0  0  0  0999 V2000
    1.2957   -1.2544    0.0000 N   0  3  0  0  0  0  0  0  0  0  0  0
    0.0000   -1.5301    0.0000 O   0  5  0  0  0  0  0  0  0  0  0  0
    1.7093    0.0000    0.0000 O   0  0  0  0  0  0  0  0  0  0  0  0
    2.1917   -2.2469    0.0000 C   0  0  0  0  0  0  0  0  0  0  0  0
    3.5151   -2.1090    0.0000 O   0  0  0  0  0  0  0  0  0  0  0  0
    4.0527   -3.3221    0.0000 C   0  0  0  0  0  0  0  0  0  0  0  0
    3.0602   -4.2181    0.0000 C   0  0  0  0  0  0  0  0  0  0  0  0
    1.9161   -3.5426    0.0000 C   0  0  0  0  0  0  0  0  0  0  0  0
    5.3484   -3.5978    0.0000 C   0  0  0  0  0  0  0  0  0  0  0  0
    5.7620   -4.8660    0.0000 C   0  0  0  0  0  0  0  0  0  0  0  0
    7.0715   -5.1416    0.0000 C   0  0  0  0  0  0  0  0  0  0  0  0
    8.0502   -4.2456    0.0000 O   0  0  0  0  0  0  0  0  0  0  0  0
    9.2081   -4.9211    0.0000 C   0  0  0  0  0  0  0  0  0  0  0  0
   10.4211   -4.3697    0.0000 N   0  0  0  0  0  0  0  0  0  0  0  0
   11.4963   -5.1554    0.0000 C   0  0  0  0  0  0  0  0  0  0  0  0
   12.7094   -4.6178    0.0000 N   0  0  0  0  0  0  0  0  0  0  0  0
   12.8472   -3.2945    0.0000 C   0  0  0  0  0  0  0  0  0  0  0  0
   13.7846   -5.4036    0.0000 C   0  0  0  0  0  0  0  0  0  0  0  0
    8.9324   -6.2168    0.0000 N   0  0  0  0  0  0  0  0  0  0  0  0
    7.6091   -6.3547    0.0000 N   0  0  0  0  0  0  0  0  0  0  0  0
  1  2  1  0  0  0  0
  1  3  2  0  0  0  0
  1  4  1  0  0  0  0
  4  5  1  0  0  0  0
  4  8  2  0  0  0  0
  5  6  1  0  0  0  0
  6  7  2  0  0  0  0
  6  9  1  0  0  0  0
  7  8  1  0  0  0  0
  9 10  2  0  0  0  0
 10 11  1  0  0  0  0
 11 12  1  0  0  0  0
 11 20  2  0  0  0  0
 12 13  1  0  0  0  0
 13 14  1  0  0  0  0
 13 19  2  0  0  0  0
 14 15  1  0  0  0  0
 15 16  1  0  0  0  0
 16 17  1  0  0  0  0
 16 18  1  0  0  0  0
 19 20  1  0  0  0  0
M  END
>  <DSSTox_RID>
20502

>  <DSSTox_CID>
502

>  <DSSTox_Generic_SID>
20502

>  <DSSTox_FileID>
524_CPDBAS_v5d

>  <STRUCTURE_Formula>
C11H13N5O4

>  <STRUCTURE_MolecularWeight>
279.2548

>  <STRUCTURE_ChemicalType>
defined organic

>  <STRUCTURE_TestedForm_DefinedOrganic>
parent

>  <STRUCTURE_Shown>
tested chemical

>  <TestSubstance_ChemicalName>
trans-2-[(Dimethylamino)methylimino]-5-[2-(5-nitro-2-furyl)vinyl]-1,3,4-oxadiazole

>  <TestSubstance_CASRN>
55738-54-0

>  <TestSubstance_Description>
single chemical compound

>  <ChemicalNote>
stereochem

>  <STRUCTURE_ChemicalName_IUPAC>
N,N-dimethyl-N'-{5-[(E)-2-(5-nitrofuran-2-yl)ethenyl]-1,3,4-oxadiazol-2-yl}methanediamine

>  <STRUCTURE_SMILES>
CN(C)CNc2nnc(/C=C/c1ccc(o1)[N+]([O-])=O)o2

>  <STRUCTURE_Parent_SMILES>
CN(C)CNc2nnc(/C=C/c1ccc(o1)[N+]([O-])=O)o2

>  <STRUCTURE_InChI>
InChI=1/C11H13N5O4/c1-15(2)7-12-11-14-13-9(20-11)5-3-8-4-6-10(19-8)16(17)18/h3-6H,7H2,1-2H3,(H,12,14)/b5-3+/f/h12H

>  <STRUCTURE_InChIKey>
RLGAJSNJUZVZTA-FSWHEDRIDB

>  <StudyType>
Carcinogenicity

>  <Endpoint>
TD50; Tumor Target Sites

>  <Species>
rat

>  <ActivityOutcome_CPDBAS_Mutagenicity>
active

>  <TD50_Rat_mg>
22.4

>  <TD50_Rat_mmol>
0.0802

>  <ActivityScore_CPDBAS_Rat>
37

>  <TargetSites_Rat_Female>
lung; mammary gland; small intestine; stomach

>  <ActivityOutcome_CPDBAS_Rat>
active

>  <ActivityOutcome_CPDBAS_SingleCellCall>
active

>  <ActivityOutcome_CPDBAS_MultiCellCall>
active

>  <ActivityOutcome_CPDBAS_MultiCellCall_Details>
multisite active

>  <ChemicalPage_URL>
http://potency.berkeley.edu/chempages/trans-2-[(DIMETHYLAMINO)METHYLIMINO]-5-[2-(5-NITRO.html

$$$$



 12 12  0  0  0  0  0  0  0  0999 V2000
    3.9905   -3.4580    0.0000 C   0  0  0  0  0  0  0  0  0  0  0  0
    2.6563   -3.4580    0.0000 C   0  0  0  0  0  0  0  0  0  0  0  0
    1.9922   -2.3033    0.0000 C   0  0  0  0  0  0  0  0  0  0  0  0
    2.6563   -1.1547    0.0000 C   0  0  0  0  0  0  0  0  0  0  0  0
    3.9905   -1.1547    0.0000 C   0  0  0  0  0  0  0  0  0  0  0  0
    4.6546   -2.3033    0.0000 C   0  0  0  0  0  0  0  0  0  0  0  0
    5.9827   -2.3033    0.0000 O   0  0  0  0  0  0  0  0  0  0  0  0
    1.9922    0.0000    0.0000 C   0  0  0  0  0  0  0  0  0  0  0  0
    0.6641   -2.3033    0.0000 N   0  0  0  0  0  0  0  0  0  0  0  0
    0.0000   -1.1547    0.0000 C   0  0  0  0  0  0  0  0  0  0  0  0
    0.0000   -3.4580    0.0000 C   0  0  0  0  0  0  0  0  0  0  0  0
    1.9922   -4.6067    0.0000 C   0  0  0  0  0  0  0  0  0  0  0  0
  1  2  2  0  0  0  0
  1  6  1  0  0  0  0
  2  3  1  0  0  0  0
  2 12  1  0  0  0  0
  3  4  2  0  0  0  0
  3  9  1  0  0  0  0
  4  5  1  0  0  0  0
  4  8  1  0  0  0  0
  5  6  2  0  0  0  0
  6  7  1  0  0  0  0
  9 10  1  0  0  0  0
  9 11  1  0  0  0  0
M  END
>  <DSSTox_RID>
20503

>  <DSSTox_CID>
503

>  <DSSTox_Generic_SID>
20503

>  <DSSTox_FileID>
525_CPDBAS_v5d

>  <STRUCTURE_Formula>
C10H15NO

>  <STRUCTURE_MolecularWeight>
165.2346

>  <STRUCTURE_ChemicalType>
defined organic

>  <STRUCTURE_TestedForm_DefinedOrganic>
parent

>  <STRUCTURE_Shown>
tested chemical

>  <TestSubstance_ChemicalName>
4-Dimethylamino-3,5-xylenol

>  <TestSubstance_CASRN>
6120-10-1

>  <TestSubstance_Description>
single chemical compound

>  <STRUCTURE_ChemicalName_IUPAC>
4-(dimethylamino)-3,5-dimethylphenol

>  <STRUCTURE_SMILES>
C1=C(C(=C(C=C1O)C)N(C)C)C

>  <STRUCTURE_Parent_SMILES>
C1=C(C(=C(C=C1O)C)N(C)C)C

>  <STRUCTURE_InChI>
InChI=1/C10H15NO/c1-7-5-9(12)6-8(2)10(7)11(3)4/h5-6,12H,1-4H3

>  <STRUCTURE_InChIKey>
GZPBVLUEICLBOA-UHFFFAOYAQ

>  <StudyType>
Carcinogenicity

>  <Endpoint>
TD50; Tumor Target Sites

>  <Species>
mouse

>  <ActivityScore_CPDBAS_Mouse>
0

>  <TD50_Mouse_Note>
no positive results

>  <TargetSites_Mouse_Male>
no positive results

>  <TargetSites_Mouse_Female>
no positive results

>  <ActivityOutcome_CPDBAS_Mouse>
inactive

>  <ActivityOutcome_CPDBAS_SingleCellCall>
inactive

>  <ActivityOutcome_CPDBAS_MultiCellCall>
inactive

>  <ActivityOutcome_CPDBAS_MultiCellCall_Details>
multisex inactive

>  <ChemicalPage_URL>
http://potency.berkeley.edu/chempages/4-DIMETHYLAMINO-3,5-XYLENOL.html

$$$$



 17 18  0  0  0  0  0  0  0  0999 V2000
    4.3628   -4.6875    0.0000 O   0  0  0  0  0  0  0  0  0  0  0  0
    4.7708   -3.4220    0.0000 C   0  0  0  0  0  0  0  0  0  0  0  0
    3.9882   -2.3396    0.0000 N   0  0  0  0  0  0  0  0  0  0  0  0
    2.6560   -2.3396    0.0000 C   0  0  0  0  0  0  0  0  0  0  0  0
    1.9982   -3.4969    0.0000 C   0  0  0  0  0  0  0  0  0  0  0  0
    0.6661   -3.4969    0.0000 C   0  0  0  0  0  0  0  0  0  0  0  0
    0.0000   -2.3396    0.0000 C   0  0  0  0  0  0  0  0  0  0  0  0
    0.6661   -1.1906    0.0000 C   0  0  0  0  0  0  0  0  0  0  0  0
    1.9982   -1.1906    0.0000 C   0  0  0  0  0  0  0  0  0  0  0  0
    4.7708   -1.2656    0.0000 N   0  0  0  0  0  0  0  0  0  0  0  0
    6.0364   -1.6819    0.0000 C   0  0  0  0  0  0  0  0  0  0  0  0
    6.0364   -3.0057    0.0000 C   0  0  0  0  0  0  0  0  0  0  0  0
    7.1104   -3.7883    0.0000 N   0  0  0  0  0  0  0  0  0  0  0  0
    8.3260   -3.2471    0.0000 C   0  0  0  0  0  0  0  0  0  0  0  0
    7.0854   -5.1122    0.0000 C   0  0  0  0  0  0  0  0  0  0  0  0
    7.1104   -0.8992    0.0000 C   0  0  0  0  0  0  0  0  0  0  0  0
    4.3628    0.0000    0.0000 C   0  0  0  0  0  0  0  0  0  0  0  0
  1  2  2  0  0  0  0
  2  3  1  0  0  0  0
  2 12  1  0  0  0  0
  3  4  1  0  0  0  0
  3 10  1  0  0  0  0
  4  5  2  0  0  0  0
  4  9  1  0  0  0  0
  5  6  1  0  0  0  0
  6  7  2  0  0  0  0
  7  8  1  0  0  0  0
  8  9  2  0  0  0  0
 10 11  1  0  0  0  0
 10 17  1  0  0  0  0
 11 12  2  0  0  0  0
 11 16  1  0  0  0  0
 12 13  1  0  0  0  0
 13 14  1  0  0  0  0
 13 15  1  0  0  0  0
M  END
>  <DSSTox_RID>
20504

>  <DSSTox_CID>
504

>  <DSSTox_Generic_SID>
20504

>  <DSSTox_FileID>
526_CPDBAS_v5d

>  <STRUCTURE_Formula>
C13H17N3O

>  <STRUCTURE_MolecularWeight>
231.2936

>  <STRUCTURE_ChemicalType>
defined organic

>  <STRUCTURE_TestedForm_DefinedOrganic>
parent

>  <STRUCTURE_Shown>
tested chemical

>  <TestSubstance_ChemicalName>
4-Dimethylaminoantipyrine

>  <TestSubstance_CASRN>
58-15-1

>  <TestSubstance_Description>
single chemical compound

>  <STRUCTURE_ChemicalName_IUPAC>
4-(dimethylamino)-1,5-dimethyl-2-phenyl-1,2-dihydro-3H-pyrazol-3-one

>  <STRUCTURE_SMILES>
O=C1N(C2=CC=CC=C2)N(C(=C1N(C)C)C)C

>  <STRUCTURE_Parent_SMILES>
O=C1N(C2=CC=CC=C2)N(C(=C1N(C)C)C)C

>  <STRUCTURE_InChI>
InChI=1/C13H17N3O/c1-10-12(14(2)3)13(17)16(15(10)4)11-8-6-5-7-9-11/h5-9H,1-4H3

>  <STRUCTURE_InChIKey>
RMMXTBMQSGEXHJ-UHFFFAOYAM

>  <StudyType>
Carcinogenicity

>  <Endpoint>
TD50; Tumor Target Sites

>  <Species>
mouse

>  <ActivityOutcome_CPDBAS_Mutagenicity>
active

>  <ActivityScore_CPDBAS_Mouse>
0

>  <TD50_Mouse_Note>
no positive results

>  <TargetSites_Mouse_Male>
no positive results

>  <TargetSites_Mouse_Female>
no positive results

>  <ActivityOutcome_CPDBAS_Mouse>
inactive

>  <ActivityOutcome_CPDBAS_SingleCellCall>
inactive

>  <ActivityOutcome_CPDBAS_MultiCellCall>
inactive

>  <ActivityOutcome_CPDBAS_MultiCellCall_Details>
multisex inactive

>  <Note_CPDBAS>
Mutagenicity_SAL_CPDB added v3a

>  <ChemicalPage_URL>
http://potency.berkeley.edu/chempages/4-DIMETHYLAMINOANTIPYRINE.html

$$$$



  6  5  0  0  0  0  0  0  0  0999 V2000
    4.6084   -1.9954    0.0000 C   0  0  0  0  0  0  0  0  0  0  0  0
    3.4563   -1.3318    0.0000 N   0  0  0  0  0  0  0  0  0  0  0  0
    2.3042   -1.9954    0.0000 C   0  0  0  0  0  0  0  0  0  0  0  0
    1.1521   -1.3318    0.0000 C   0  0  0  0  0  0  0  0  0  0  0  0
    0.0000   -1.9954    0.0000 O   0  0  0  0  0  0  0  0  0  0  0  0
    3.4563    0.0000    0.0000 C   0  0  0  0  0  0  0  0  0  0  0  0
  1  2  1  0  0  0  0
  2  3  1  0  0  0  0
  2  6  1  0  0  0  0
  3  4  1  0  0  0  0
  4  5  1  0  0  0  0
M  END
>  <DSSTox_RID>
20505

>  <DSSTox_CID>
505

>  <DSSTox_Generic_SID>
20505

>  <DSSTox_FileID>
527_CPDBAS_v5d

>  <STRUCTURE_Formula>
C4H11NO

>  <STRUCTURE_MolecularWeight>
89.1362

>  <STRUCTURE_ChemicalType>
defined organic

>  <STRUCTURE_TestedForm_DefinedOrganic>
parent

>  <STRUCTURE_Shown>
tested chemical

>  <TestSubstance_ChemicalName>
2-Dimethylaminoethanol

>  <TestSubstance_CASRN>
108-01-0

>  <TestSubstance_Description>
single chemical compound

>  <STRUCTURE_ChemicalName_IUPAC>
2-(dimethylamino)ethanol

>  <STRUCTURE_SMILES>
CN(CCO)C

>  <STRUCTURE_Parent_SMILES>
CN(CCO)C

>  <STRUCTURE_InChI>
InChI=1/C4H11NO/c1-5(2)3-4-6/h6H,3-4H2,1-2H3

>  <STRUCTURE_InChIKey>
UEEJHVSXFDXPFK-UHFFFAOYAY

>  <StudyType>
Carcinogenicity

>  <Endpoint>
TD50; Tumor Target Sites

>  <Species>
mouse

>  <ActivityOutcome_CPDBAS_Mutagenicity>
inactive

>  <ActivityScore_CPDBAS_Mouse>
0

>  <TD50_Mouse_Note>
no positive results

>  <TargetSites_Mouse_Female>
no positive results

>  <ActivityOutcome_CPDBAS_Mouse>
inactive

>  <ActivityOutcome_CPDBAS_SingleCellCall>
inactive

>  <ChemicalPage_URL>
http://potency.berkeley.edu/chempages/2-DIMETHYLAMINOETHANOL.html

$$$$



  9  9  0  0  0  0  0  0  0  0999 V2000
    0.0000   -2.3037    0.0000 N   0  0  0  0  0  0  0  0  0  0  0  0
    1.3315   -2.3037    0.0000 C   0  0  0  0  0  0  0  0  0  0  0  0
    1.9950   -1.1518    0.0000 C   0  0  0  0  0  0  0  0  0  0  0  0
    3.3265   -1.1518    0.0000 C   0  0  0  0  0  0  0  0  0  0  0  0
    3.9899   -2.3037    0.0000 C   0  0  0  0  0  0  0  0  0  0  0  0
    3.3265   -3.4555    0.0000 C   0  0  0  0  0  0  0  0  0  0  0  0
    1.3315    0.0000    0.0000 C   0  0  0  0  0  0  0  0  0  0  0  0
    1.9950   -3.4555    0.0000 C   0  0  0  0  0  0  0  0  0  0  0  0
    1.3315   -4.6073    0.0000 C   0  0  0  0  0  0  0  0  0  0  0  0
  1  2  1  0  0  0  0
  2  3  2  0  0  0  0
  2  8  1  0  0  0  0
  3  4  1  0  0  0  0
  3  7  1  0  0  0  0
  4  5  2  0  0  0  0
  5  6  1  0  0  0  0
  6  8  2  0  0  0  0
  8  9  1  0  0  0  0
M  END
>  <DSSTox_RID>
40790

>  <DSSTox_CID>
6307

>  <DSSTox_Generic_SID>
26307

>  <DSSTox_FileID>
529_CPDBAS_v5d

>  <STRUCTURE_Formula>
C8H11N

>  <STRUCTURE_MolecularWeight>
121.1796

>  <STRUCTURE_ChemicalType>
defined organic

>  <STRUCTURE_TestedForm_DefinedOrganic>
parent

>  <STRUCTURE_Shown>
tested chemical

>  <TestSubstance_ChemicalName>
2,6-Dimethylaniline

>  <TestSubstance_CASRN>
87-62-7

>  <TestSubstance_Description>
single chemical compound

>  <STRUCTURE_ChemicalName_IUPAC>
2,6-dimethylaniline

>  <STRUCTURE_SMILES>
Nc(c(ccc1)C)c1C

>  <STRUCTURE_Parent_SMILES>
Nc(c(ccc1)C)c1C

>  <STRUCTURE_InChI>
InChI=1/C8H11N/c1-6-4-3-5-7(2)8(6)9/h3-5H,9H2,1-2H3

>  <STRUCTURE_InChIKey>
UFFBMTHBGFGIHF-UHFFFAOYAI

>  <StudyType>
Carcinogenicity

>  <Endpoint>
TD50; Tumor Target Sites

>  <Species>
rat

>  <ActivityOutcome_CPDBAS_Mutagenicity>
active

>  <ActivityScore_CPDBAS_Rat>
0

>  <TD50_Rat_Note>
no positive results

>  <TargetSites_Rat_Male>
no positive results

>  <ActivityOutcome_CPDBAS_Rat>
inactive

>  <ActivityOutcome_CPDBAS_SingleCellCall>
inactive

>  <Note_CPDBAS>
Rat added v5a; Mutagenicity_SAL_CPDB added v5a; chemical added v5a

>  <ChemicalPage_URL>
http://potency.berkeley.edu/chempages/2%2C6-DIMETHYLANILINE.html

$$$$



  9  9  0  0  0  0  0  0  0  0999 V2000
    0.0000   -2.3037    0.0000 C   0  0  0  0  0  0  0  0  0  0  0  0
    0.6655   -1.1542    0.0000 N   0  0  0  0  0  0  0  0  0  0  0  0
    1.9965   -1.1542    0.0000 C   0  0  0  0  0  0  0  0  0  0  0  0
    2.6574    0.0000    0.0000 C   0  0  0  0  0  0  0  0  0  0  0  0
    3.9884    0.0000    0.0000 C   0  0  0  0  0  0  0  0  0  0  0  0
    4.6539   -1.1542    0.0000 C   0  0  0  0  0  0  0  0  0  0  0  0
    3.9884   -2.3037    0.0000 C   0  0  0  0  0  0  0  0  0  0  0  0
    2.6574   -2.3037    0.0000 C   0  0  0  0  0  0  0  0  0  0  0  0
    0.0000    0.0000    0.0000 C   0  0  0  0  0  0  0  0  0  0  0  0
  1  2  1  0  0  0  0
  2  3  1  0  0  0  0
  2  9  1  0  0  0  0
  3  4  2  0  0  0  0
  3  8  1  0  0  0  0
  4  5  1  0  0  0  0
  5  6  2  0  0  0  0
  6  7  1  0  0  0  0
  7  8  2  0  0  0  0
M  END
>  <DSSTox_RID>
20507

>  <DSSTox_CID>
507

>  <DSSTox_Generic_SID>
20507

>  <DSSTox_FileID>
530_CPDBAS_v5d

>  <STRUCTURE_Formula>
C8H11N

>  <STRUCTURE_MolecularWeight>
121.1796

>  <STRUCTURE_ChemicalType>
defined organic

>  <STRUCTURE_TestedForm_DefinedOrganic>
parent

>  <STRUCTURE_Shown>
tested chemical

>  <TestSubstance_ChemicalName>
N,N-Dimethylaniline

>  <TestSubstance_CASRN>
121-69-7

>  <TestSubstance_Description>
single chemical compound

>  <STRUCTURE_ChemicalName_IUPAC>
N,N-dimethylaniline

>  <STRUCTURE_SMILES>
CN(C1=CC=CC=C1)C

>  <STRUCTURE_Parent_SMILES>
CN(C1=CC=CC=C1)C

>  <STRUCTURE_InChI>
InChI=1/C8H11N/c1-9(2)8-6-4-3-5-7-8/h3-7H,1-2H3

>  <STRUCTURE_InChIKey>
JLTDJTHDQAWBAV-UHFFFAOYAJ

>  <StudyType>
Carcinogenicity

>  <Endpoint>
TD50; Tumor Target Sites

>  <Species>
rat; mouse

>  <ActivityOutcome_CPDBAS_Mutagenicity>
inactive

>  <TD50_Rat_mg>
125

>  <TD50_Rat_mmol>
1.03

>  <ActivityScore_CPDBAS_Rat>
26

>  <TargetSites_Rat_Male>
bone

>  <TargetSites_Rat_Female>
no positive results

>  <ActivityOutcome_CPDBAS_Rat>
active

>  <ActivityScore_CPDBAS_Mouse>
0

>  <TD50_Mouse_Note>
no positive results

>  <TargetSites_Mouse_Male>
no positive results

>  <TargetSites_Mouse_Female>
no positive results

>  <ActivityOutcome_CPDBAS_Mouse>
inactive

>  <ActivityOutcome_CPDBAS_SingleCellCall>
active

>  <NTP_TechnicalReport>
TR 360

>  <ChemicalPage_URL>
http://potency.berkeley.edu/chempages/N,N-DIMETHYLANILINE.html

$$$$



 11 11  0  0  0  0  0  0  0  0999 V2000
    3.4549   -1.9919    0.0000 C   0  0  0  0  0  0  0  0  0  0  0  0
    4.7653   -2.2254    0.0000 C   0  0  0  0  0  0  0  0  0  0  0  0
    3.9123   -0.7434    0.0000 C   0  0  0  0  0  0  0  0  0  0  0  0
    3.4549   -3.3214    0.0000 C   0  0  0  0  0  0  0  0  0  0  0  0
    4.6081   -3.9886    0.0000 O   0  0  0  0  0  0  0  0  0  0  0  0
    2.3016   -3.9886    0.0000 N   0  0  0  0  0  0  0  0  0  0  0  0
    1.1532   -3.3214    0.0000 C   0  0  0  0  0  0  0  0  0  0  0  0
    0.0000   -3.9886    0.0000 O   0  0  0  0  0  0  0  0  0  0  0  0
    1.1532   -1.9919    0.0000 N   0  0  0  0  0  0  0  0  0  0  0  0
    2.3016   -1.3295    0.0000 C   0  0  0  0  0  0  0  0  0  0  0  0
    2.3016    0.0000    0.0000 O   0  0  0  0  0  0  0  0  0  0  0  0
  1  2  1  0  0  0  0
  1  3  1  0  0  0  0
  1  4  1  0  0  0  0
  1 10  1  0  0  0  0
  4  5  2  0  0  0  0
  4  6  1  0  0  0  0
  6  7  1  0  0  0  0
  7  8  2  0  0  0  0
  7  9  1  0  0  0  0
  9 10  1  0  0  0  0
 10 11  2  0  0  0  0
M  END
>  <DSSTox_RID>
20509

>  <DSSTox_CID>
509

>  <DSSTox_Generic_SID>
20509

>  <DSSTox_FileID>
532_CPDBAS_v5d

>  <STRUCTURE_Formula>
C6H8N2O3

>  <STRUCTURE_MolecularWeight>
156.1408

>  <STRUCTURE_ChemicalType>
defined organic

>  <STRUCTURE_TestedForm_DefinedOrganic>
parent

>  <STRUCTURE_Shown>
tested chemical

>  <TestSubstance_ChemicalName>
5,5-Dimethylbarbituric acid

>  <TestSubstance_CASRN>
24448-94-0

>  <TestSubstance_Description>
single chemical compound

>  <STRUCTURE_ChemicalName_IUPAC>
5,5-dimethylpyrimidine-2,4,6(1H,3H,5H)-trione

>  <STRUCTURE_SMILES>
C1(C)(C)C(=O)NC(=O)NC1=O

>  <STRUCTURE_Parent_SMILES>
C1(C)(C)C(=O)NC(=O)NC1=O

>  <STRUCTURE_InChI>
InChI=1/C6H8N2O3/c1-6(2)3(9)7-5(11)8-4(6)10/h1-2H3,(H2,7,8,9,10,11)/f/h7-8H

>  <STRUCTURE_InChIKey>
LAOZSCRCYVBSJA-ZKXRSSAFCF

>  <StudyType>
Carcinogenicity

>  <Endpoint>
TD50; Tumor Target Sites

>  <Species>
rat

>  <ActivityScore_CPDBAS_Rat>
0

>  <TD50_Rat_Note>
no positive results

>  <TargetSites_Rat_Male>
no positive results

>  <ActivityOutcome_CPDBAS_Rat>
inactive

>  <ActivityOutcome_CPDBAS_SingleCellCall>
inactive

>  <ChemicalPage_URL>
http://potency.berkeley.edu/chempages/5,5-DIMETHYLBARBITURIC%20ACID.html

$$$$



 20 23  0  0  0  0  0  0  0  0999 V2000
    3.9937   -4.6075    0.0000 C   0  0  0  0  0  0  0  0  0  0  0  0
    4.6507   -3.4578    0.0000 C   0  0  0  0  0  0  0  0  0  0  0  0
    5.9819   -3.4578    0.0000 C   0  0  0  0  0  0  0  0  0  0  0  0
    6.6476   -4.6075    0.0000 C   0  0  0  0  0  0  0  0  0  0  0  0
    7.9788   -4.6075    0.0000 C   0  0  0  0  0  0  0  0  0  0  0  0
    8.6444   -3.4578    0.0000 C   0  0  0  0  0  0  0  0  0  0  0  0
    7.9788   -2.3081    0.0000 C   0  0  0  0  0  0  0  0  0  0  0  0
    6.6476   -2.3081    0.0000 C   0  0  0  0  0  0  0  0  0  0  0  0
    5.9819   -1.1497    0.0000 C   0  0  0  0  0  0  0  0  0  0  0  0
    4.6507   -1.1497    0.0000 C   0  0  0  0  0  0  0  0  0  0  0  0
    3.9937    0.0000    0.0000 C   0  0  0  0  0  0  0  0  0  0  0  0
    2.6625    0.0000    0.0000 C   0  0  0  0  0  0  0  0  0  0  0  0
    1.9969   -1.1497    0.0000 C   0  0  0  0  0  0  0  0  0  0  0  0
    2.6625   -2.3081    0.0000 C   0  0  0  0  0  0  0  0  0  0  0  0
    3.9937   -2.3081    0.0000 C   0  0  0  0  0  0  0  0  0  0  0  0
    1.9969   -3.4578    0.0000 C   0  0  0  0  0  0  0  0  0  0  0  0
    0.6656   -3.4578    0.0000 C   0  0  0  0  0  0  0  0  0  0  0  0
    0.0000   -2.3081    0.0000 C   0  0  0  0  0  0  0  0  0  0  0  0
    0.6656   -1.1497    0.0000 C   0  0  0  0  0  0  0  0  0  0  0  0
    6.6476    0.0000    0.0000 C   0  0  0  0  0  0  0  0  0  0  0  0
  1  2  1  0  0  0  0
  2  3  2  0  0  0  0
  2 15  1  0  0  0  0
  3  4  1  0  0  0  0
  3  8  1  0  0  0  0
  4  5  2  0  0  0  0
  5  6  1  0  0  0  0
  6  7  2  0  0  0  0
  7  8  1  0  0  0  0
  8  9  2  0  0  0  0
  9 10  1  0  0  0  0
  9 20  1  0  0  0  0
 10 11  2  0  0  0  0
 10 15  1  0  0  0  0
 11 12  1  0  0  0  0
 12 13  2  0  0  0  0
 13 14  1  0  0  0  0
 13 19  1  0  0  0  0
 14 15  2  0  0  0  0
 14 16  1  0  0  0  0
 16 17  2  0  0  0  0
 17 18  1  0  0  0  0
 18 19  2  0  0  0  0
M  END
>  <DSSTox_RID>
20510

>  <DSSTox_CID>
510

>  <DSSTox_Generic_SID>
20510

>  <DSSTox_FileID>
533_CPDBAS_v5d

>  <STRUCTURE_Formula>
C20H16

>  <STRUCTURE_MolecularWeight>
256.341

>  <STRUCTURE_ChemicalType>
defined organic

>  <STRUCTURE_TestedForm_DefinedOrganic>
parent

>  <STRUCTURE_Shown>
tested chemical

>  <TestSubstance_ChemicalName>
7,12-Dimethylbenz(a)anthracene

>  <TestSubstance_CASRN>
57-97-6

>  <TestSubstance_Description>
single chemical compound

>  <STRUCTURE_ChemicalName_IUPAC>
7,12-dimethyltetraphene

>  <STRUCTURE_SMILES>
CC1=C2C=CC=CC2=C(C3=CC=C4C(=C13)C=CC=C4)C

>  <STRUCTURE_Parent_SMILES>
CC1=C2C=CC=CC2=C(C3=CC=C4C(=C13)C=CC=C4)C

>  <STRUCTURE_InChI>
InChI=1/C20H16/c1-13-16-8-5-6-9-17(16)14(2)20-18(13)12-11-15-7-3-4-10-19(15)20/h3-12H,1-2H3

>  <STRUCTURE_InChIKey>
ARSRBNBHOADGJU-UHFFFAOYAX

>  <StudyType>
Carcinogenicity

>  <Endpoint>
TD50; Tumor Target Sites

>  <Species>
mouse

>  <ActivityOutcome_CPDBAS_Mutagenicity>
active

>  <TD50_Mouse_mg>
0.084

>  <TD50_Mouse_mmol>
0.000328

>  <ActivityScore_CPDBAS_Mouse>
68

>  <TargetSites_Mouse_Female>
vascular system

>  <ActivityOutcome_CPDBAS_Mouse>
active

>  <ActivityOutcome_CPDBAS_SingleCellCall>
active

>  <ChemicalPage_URL>
http://potency.berkeley.edu/chempages/7,12-DIMETHYLBENZ(a)ANTHRACENE.html

$$$$



  6  5  0  0  0  0  0  0  0  0999 V2000
    1.3307    0.0000    0.0000 O   0  0  0  0  0  0  0  0  0  0  0  0
    1.9943   -1.1509    0.0000 C   0  0  0  0  0  0  0  0  0  0  0  0
    1.3307   -2.3053    0.0000 N   0  0  0  0  0  0  0  0  0  0  0  0
    1.9943   -3.4563    0.0000 C   0  0  0  0  0  0  0  0  0  0  0  0
    0.0000   -2.3053    0.0000 C   0  0  0  0  0  0  0  0  0  0  0  0
    3.3250   -1.1509    0.0000 Cl  0  0  0  0  0  0  0  0  0  0  0  0
  1  2  2  0  0  0  0
  2  3  1  0  0  0  0
  2  6  1  0  0  0  0
  3  4  1  0  0  0  0
  3  5  1  0  0  0  0
M  END
>  <DSSTox_RID>
20512

>  <DSSTox_CID>
512

>  <DSSTox_Generic_SID>
20512

>  <DSSTox_FileID>
535_CPDBAS_v5d

>  <STRUCTURE_Formula>
C3H6ClNO

>  <STRUCTURE_MolecularWeight>
107.5388

>  <STRUCTURE_ChemicalType>
defined organic

>  <STRUCTURE_TestedForm_DefinedOrganic>
parent

>  <STRUCTURE_Shown>
tested chemical

>  <TestSubstance_ChemicalName>
Dimethylcarbamyl chloride

>  <TestSubstance_CASRN>
79-44-7

>  <TestSubstance_Description>
single chemical compound

>  <STRUCTURE_ChemicalName_IUPAC>
dimethylcarbamic chloride

>  <STRUCTURE_SMILES>
O=C(N(C)C)Cl

>  <STRUCTURE_Parent_SMILES>
O=C(N(C)C)Cl

>  <STRUCTURE_InChI>
InChI=1/C3H6ClNO/c1-5(2)3(4)6/h1-2H3

>  <STRUCTURE_InChIKey>
YIIMEMSDCNDGTB-UHFFFAOYAG

>  <StudyType>
Carcinogenicity

>  <Endpoint>
TD50; Tumor Target Sites

>  <Species>
mouse; hamster

>  <ActivityOutcome_CPDBAS_Mutagenicity>
active

>  <TD50_Mouse_mg>
5.37

>  <TD50_Mouse_mmol>
0.0499

>  <ActivityScore_CPDBAS_Mouse>
43

>  <TD50_Mouse_Note>
positive test results only by intraperitoneal or intravenous injection

>  <TargetSites_Mouse_Female>
peritoneal cavity

>  <ActivityOutcome_CPDBAS_Mouse>
active

>  <TD50_Hamster_mg>
0.625

>  <TD50_Hamster_mmol>
0.00581

>  <ActivityScore_CPDBAS_Hamster>
80

>  <TargetSites_Hamster_Male>
nasal cavity

>  <ActivityOutcome_CPDBAS_Hamster>
active

>  <ActivityOutcome_CPDBAS_SingleCellCall>
active

>  <ActivityOutcome_CPDBAS_MultiCellCall>
active

>  <ActivityOutcome_CPDBAS_MultiCellCall_Details>
multisite active; multisex active; multispecies active

>  <ChemicalPage_URL>
http://potency.berkeley.edu/chempages/DIMETHYLCARBAMYL%20CHLORIDE.html

$$$$



 16 15  0  0  0  0  0  0  0  0999 V2000
   11.3180   -1.3274    0.0000 C   0  0  0  0  0  0  0  0  0  0  0  0
   12.6454   -1.3274    0.0000 N   0  3  0  0  0  0  0  0  0  0  0  0
   12.6454   -2.6548    0.0000 C   0  0  0  0  0  0  0  0  0  0  0  0
   11.4997   -3.3255    0.0000 C   0  0  0  0  0  0  0  0  0  0  0  0
   10.3399   -2.6548    0.0000 C   0  0  0  0  0  0  0  0  0  0  0  0
    9.1941   -3.3255    0.0000 C   0  0  0  0  0  0  0  0  0  0  0  0
    8.0484   -2.6548    0.0000 C   0  0  0  0  0  0  0  0  0  0  0  0
    6.9026   -3.3255    0.0000 C   0  0  0  0  0  0  0  0  0  0  0  0
    5.7429   -2.6548    0.0000 C   0  0  0  0  0  0  0  0  0  0  0  0
    4.5971   -3.3255    0.0000 C   0  0  0  0  0  0  0  0  0  0  0  0
    3.4513   -2.6548    0.0000 C   0  0  0  0  0  0  0  0  0  0  0  0
    2.3055   -3.3255    0.0000 C   0  0  0  0  0  0  0  0  0  0  0  0
    1.1458   -2.6548    0.0000 C   0  0  0  0  0  0  0  0  0  0  0  0
    0.0000   -3.3255    0.0000 C   0  0  0  0  0  0  0  0  0  0  0  0
   12.6454    0.0000    0.0000 C   0  0  0  0  0  0  0  0  0  0  0  0
   13.9729   -1.3274    0.0000 O   0  5  0  0  0  0  0  0  0  0  0  0
  1  2  1  0  0  0  0
  2  3  1  0  0  0  0
  2 15  1  0  0  0  0
  2 16  1  0  0  0  0
  3  4  1  0  0  0  0
  4  5  1  0  0  0  0
  5  6  1  0  0  0  0
  6  7  1  0  0  0  0
  7  8  1  0  0  0  0
  8  9  1  0  0  0  0
  9 10  1  0  0  0  0
 10 11  1  0  0  0  0
 11 12  1  0  0  0  0
 12 13  1  0  0  0  0
 13 14  1  0  0  0  0
M  END
>  <DSSTox_RID>
20514

>  <DSSTox_CID>
514

>  <DSSTox_Generic_SID>
20514

>  <DSSTox_FileID>
537_CPDBAS_v5d

>  <STRUCTURE_Formula>
C14H31NO

>  <STRUCTURE_MolecularWeight>
229.402

>  <STRUCTURE_ChemicalType>
defined organic

>  <STRUCTURE_TestedForm_DefinedOrganic>
parent

>  <STRUCTURE_Shown>
tested chemical

>  <TestSubstance_ChemicalName>
N,N-Dimethyldodecylamine-N-oxide

>  <TestSubstance_CASRN>
1643-20-5

>  <TestSubstance_Description>
single chemical compound

>  <ChemicalNote>
ammonium

>  <STRUCTURE_ChemicalName_IUPAC>
dodecyl(dimethyl)amine oxide

>  <STRUCTURE_SMILES>
C[N+](CCCCCCCCCCCC)(C)[O-]

>  <STRUCTURE_Parent_SMILES>
C[N+](CCCCCCCCCCCC)(C)[O-]

>  <STRUCTURE_InChI>
InChI=1/C14H31NO/c1-4-5-6-7-8-9-10-11-12-13-14-15(2,3)16/h4-14H2,1-3H3

>  <STRUCTURE_InChIKey>
SYELZBGXAIXKHU-UHFFFAOYAJ

>  <StudyType>
Carcinogenicity

>  <Endpoint>
TD50; Tumor Target Sites

>  <Species>
rat

>  <ActivityScore_CPDBAS_Rat>
0

>  <TD50_Rat_Note>
no positive results

>  <TargetSites_Rat_Male>
no positive results

>  <TargetSites_Rat_Female>
no positive results

>  <ActivityOutcome_CPDBAS_Rat>
inactive

>  <ActivityOutcome_CPDBAS_SingleCellCall>
inactive

>  <ActivityOutcome_CPDBAS_MultiCellCall>
inactive

>  <ActivityOutcome_CPDBAS_MultiCellCall_Details>
multisex inactive

>  <ChemicalPage_URL>
http://potency.berkeley.edu/chempages/N,N-DIMETHYLDODECYLAMINE-N-OXIDE.html

$$$$



  5  4  0  0  0  0  0  0  0  0999 V2000
    3.4567   -1.9945    0.0000 C   0  0  0  0  0  0  0  0  0  0  0  0
    2.3056   -1.3308    0.0000 N   0  0  0  0  0  0  0  0  0  0  0  0
    1.1511   -1.9945    0.0000 C   0  0  0  0  0  0  0  0  0  0  0  0
    0.0000   -1.3308    0.0000 O   0  0  0  0  0  0  0  0  0  0  0  0
    2.3056    0.0000    0.0000 C   0  0  0  0  0  0  0  0  0  0  0  0
  1  2  1  0  0  0  0
  2  3  1  0  0  0  0
  2  5  1  0  0  0  0
  3  4  2  0  0  0  0
M  END
>  <DSSTox_RID>
20515

>  <DSSTox_CID>
515

>  <DSSTox_Generic_SID>
20515

>  <DSSTox_FileID>
538_CPDBAS_v5d

>  <STRUCTURE_Formula>
C3H7NO

>  <STRUCTURE_MolecularWeight>
73.0938

>  <STRUCTURE_ChemicalType>
defined organic

>  <STRUCTURE_TestedForm_DefinedOrganic>
parent

>  <STRUCTURE_Shown>
tested chemical

>  <TestSubstance_ChemicalName>
Dimethylformamide

>  <TestSubstance_CASRN>
68-12-2

>  <TestSubstance_Description>
single chemical compound

>  <STRUCTURE_ChemicalName_IUPAC>
N,N-dimethylformamide

>  <STRUCTURE_SMILES>
CN(C=O)C

>  <STRUCTURE_Parent_SMILES>
CN(C=O)C

>  <STRUCTURE_InChI>
InChI=1/C3H7NO/c1-4(2)3-5/h3H,1-2H3

>  <STRUCTURE_InChIKey>
ZMXDDKWLCZADIW-UHFFFAOYAS

>  <StudyType>
Carcinogenicity

>  <Endpoint>
TD50; Tumor Target Sites

>  <Species>
rat; mouse

>  <ActivityOutcome_CPDBAS_Mutagenicity>
inactive

>  <ActivityScore_CPDBAS_Rat>
0

>  <TD50_Rat_Note>
no positive results

>  <TargetSites_Rat_Male>
no positive results

>  <TargetSites_Rat_Female>
no positive results

>  <ActivityOutcome_CPDBAS_Rat>
inactive

>  <ActivityScore_CPDBAS_Mouse>
0

>  <TD50_Mouse_Note>
no positive results

>  <TargetSites_Mouse_Male>
no positive results

>  <TargetSites_Mouse_Female>
no positive results

>  <ActivityOutcome_CPDBAS_Mouse>
inactive

>  <ActivityOutcome_CPDBAS_SingleCellCall>
inactive

>  <ActivityOutcome_CPDBAS_MultiCellCall>
inactive

>  <ActivityOutcome_CPDBAS_MultiCellCall_Details>
multisex inactive; multispecies inactive

>  <ChemicalPage_URL>
http://potency.berkeley.edu/chempages/DIMETHYLFORMAMIDE.html

$$$$



  4  3  0  0  0  0  0  0  0  0999 V2000
    1.9950    0.0000    0.0000 C   0  0  0  0  0  0  0  0  0  0  0  0
    1.3292   -1.1518    0.0000 N   0  0  0  0  0  0  0  0  0  0  0  0
    1.9950   -2.3037    0.0000 C   0  0  0  0  0  0  0  0  0  0  0  0
    0.0000   -1.1518    0.0000 N   0  0  0  0  0  0  0  0  0  0  0  0
  1  2  1  0  0  0  0
  2  3  1  0  0  0  0
  2  4  1  0  0  0  0
M  END
>  <DSSTox_RID>
20516

>  <DSSTox_CID>
516

>  <DSSTox_Generic_SID>
20516

>  <DSSTox_FileID>
539_CPDBAS_v5d

>  <STRUCTURE_Formula>
C2H8N2

>  <STRUCTURE_MolecularWeight>
60.0983

>  <STRUCTURE_ChemicalType>
defined organic

>  <STRUCTURE_TestedForm_DefinedOrganic>
parent

>  <STRUCTURE_Shown>
tested chemical

>  <TestSubstance_ChemicalName>
1,1-Dimethylhydrazine

>  <TestSubstance_CASRN>
57-14-7

>  <TestSubstance_Description>
single chemical compound

>  <STRUCTURE_ChemicalName_IUPAC>
1,1-dimethylhydrazine

>  <STRUCTURE_SMILES>
CN(C)N

>  <STRUCTURE_Parent_SMILES>
CN(C)N

>  <STRUCTURE_InChI>
InChI=1/C2H8N2/c1-4(2)3/h3H2,1-2H3

>  <STRUCTURE_InChIKey>
RHUYHJGZWVXEHW-UHFFFAOYAL

>  <StudyType>
Carcinogenicity

>  <Endpoint>
TD50; Tumor Target Sites

>  <Species>
rat; mouse; hamster

>  <ActivityOutcome_CPDBAS_Mutagenicity>
active

>  <ActivityScore_CPDBAS_Rat>
0

>  <TD50_Rat_Note>
no positive results

>  <TargetSites_Rat_Male>
no positive results

>  <TargetSites_Rat_Female>
no positive results

>  <ActivityOutcome_CPDBAS_Rat>
inactive

>  <TD50_Mouse_mg>
3.96

>  <TD50_Mouse_mmol>
0.0659

>  <ActivityScore_CPDBAS_Mouse>
42

>  <TD50_Mouse_Note>
TD50 is harmonic mean of more than one positive test

>  <TargetSites_Mouse_Male>
liver; lung; vascular system

>  <TargetSites_Mouse_Female>
lung; vascular system

>  <ActivityOutcome_CPDBAS_Mouse>
active

>  <TD50_Hamster_mg>
124

>  <TD50_Hamster_mmol>
2.06

>  <ActivityScore_CPDBAS_Hamster>
19

>  <TD50_Hamster_Note>
TD50 is harmonic mean of more than one positive test

>  <TargetSites_Hamster_Male>
large intestine

>  <TargetSites_Hamster_Female>
large intestine

>  <ActivityOutcome_CPDBAS_Hamster>
active

>  <ActivityOutcome_CPDBAS_SingleCellCall>
active

>  <ActivityOutcome_CPDBAS_MultiCellCall>
active

>  <ActivityOutcome_CPDBAS_MultiCellCall_Details>
multisite active; multisex active; multispecies active

>  <ChemicalPage_URL>
http://potency.berkeley.edu/chempages/1,1-DIMETHYLHYDRAZINE.html

$$$$



 17 18  0  0  0  0  0  0  0  0999 V2000
    5.5607   -3.1807    0.0000 C   0  0  0  0  0  0  0  0  0  0  0  0
    6.4504   -2.2020    0.0000 N   0  0  0  0  0  0  0  0  0  0  0  0
    7.6626   -2.7359    0.0000 C   0  0  0  0  0  0  0  0  0  0  0  0
    7.5292   -4.0593    0.0000 S   0  0  0  0  0  0  0  0  0  0  0  0
    6.2280   -4.3373    0.0000 C   0  0  0  0  0  0  0  0  0  0  0  0
    8.8192   -2.0686    0.0000 N   0  0  0  0  0  0  0  0  0  0  0  0
    9.9647   -2.7359    0.0000 N   0  0  0  0  0  0  0  0  0  0  0  0
   11.1214   -2.0686    0.0000 C   0  0  0  0  0  0  0  0  0  0  0  0
    9.9647   -4.0704    0.0000 C   0  0  0  0  0  0  0  0  0  0  0  0
    4.2372   -3.0473    0.0000 C   0  0  0  0  0  0  0  0  0  0  0  0
    3.3475   -4.0371    0.0000 C   0  0  0  0  0  0  0  0  0  0  0  0
    2.1353   -3.4921    0.0000 C   0  0  0  0  0  0  0  0  0  0  0  0
    2.2688   -2.1687    0.0000 C   0  0  0  0  0  0  0  0  0  0  0  0
    3.5700   -1.8906    0.0000 O   0  0  0  0  0  0  0  0  0  0  0  0
    1.2901   -1.2790    0.0000 N   0  3  0  0  0  0  0  0  0  0  0  0
    0.0000   -1.6237    0.0000 O   0  5  0  0  0  0  0  0  0  0  0  0
    1.6237    0.0000    0.0000 O   0  0  0  0  0  0  0  0  0  0  0  0
  1  2  1  0  0  0  0
  1  5  2  0  0  0  0
  1 10  1  0  0  0  0
  2  3  2  0  0  0  0
  3  4  1  0  0  0  0
  3  6  1  0  0  0  0
  4  5  1  0  0  0  0
  6  7  1  0  0  0  0
  7  8  1  0  0  0  0
  7  9  1  0  0  0  0
 10 11  2  0  0  0  0
 10 14  1  0  0  0  0
 11 12  1  0  0  0  0
 12 13  2  0  0  0  0
 13 14  1  0  0  0  0
 13 15  1  0  0  0  0
 15 16  1  0  0  0  0
 15 17  2  0  0  0  0
M  END
>  <DSSTox_RID>
20518

>  <DSSTox_CID>
518

>  <DSSTox_Generic_SID>
20518

>  <DSSTox_FileID>
541_CPDBAS_v5d

>  <STRUCTURE_Formula>
C9H10N4O3S

>  <STRUCTURE_MolecularWeight>
254.263

>  <STRUCTURE_ChemicalType>
defined organic

>  <STRUCTURE_TestedForm_DefinedOrganic>
parent

>  <STRUCTURE_Shown>
tested chemical

>  <TestSubstance_ChemicalName>
2-(2,2-Dimethylhydrazino)-4-(5-nitro-2-furyl)thiazole

>  <TestSubstance_CASRN>
26049-69-4

>  <TestSubstance_Description>
single chemical compound

>  <STRUCTURE_ChemicalName_IUPAC>
2-(2,2-dimethylhydrazino)-4-(5-nitrofuran-2-yl)-1,3-thiazole

>  <STRUCTURE_SMILES>
[O-][N+](C2=CC=C(O2)C1=CSC(NN(C)C)=N1)=O

>  <STRUCTURE_Parent_SMILES>
[O-][N+](C2=CC=C(O2)C1=CSC(NN(C)C)=N1)=O

>  <STRUCTURE_InChI>
InChI=1/C9H10N4O3S/c1-12(2)11-9-10-6(5-17-9)7-3-4-8(16-7)13(14)15/h3-5H,1-2H3,(H,10,11)/f/h11H

>  <STRUCTURE_InChIKey>
QXSIYYQGSPCIHN-WXRBYKJCCP

>  <StudyType>
Carcinogenicity

>  <Endpoint>
TD50; Tumor Target Sites

>  <Species>
rat

>  <ActivityOutcome_CPDBAS_Mutagenicity>
active

>  <TD50_Rat_mg>
0.41

>  <TD50_Rat_mmol>
0.00161

>  <ActivityScore_CPDBAS_Rat>
55

>  <TD50_Rat_Note>
harmonic mean of TD50 includes a value for upper 99% confidence limit from study with 100% tumor incidence but no lifetable

>  <TargetSites_Rat_Female>
hematopoietic system; mammary gland

>  <ActivityOutcome_CPDBAS_Rat>
active

>  <ActivityOutcome_CPDBAS_SingleCellCall>
active

>  <ActivityOutcome_CPDBAS_MultiCellCall>
active

>  <ActivityOutcome_CPDBAS_MultiCellCall_Details>
multisite active

>  <Note_CPDBAS>
TD50_Rat_Note modified v5a

>  <ChemicalPage_URL>
http://potency.berkeley.edu/chempages/2-(2,2-DIMETHYLHYDRAZINO)-4-(5-NITRO-2-FURYL)THIAZ.html

$$$$



  6  5  0  0  0  0  0  0  0  0999 V2000
    3.3250   -1.1509    0.0000 O   0  5  0  0  0  0  0  0  0  0  0  0
    1.9943   -1.1509    0.0000 N   0  3  0  0  0  0  0  0  0  0  0  0
    1.3307    0.0000    0.0000 O   0  0  0  0  0  0  0  0  0  0  0  0
    1.3307   -2.3053    0.0000 N   0  0  0  0  0  0  0  0  0  0  0  0
    1.9943   -3.4563    0.0000 C   0  0  0  0  0  0  0  0  0  0  0  0
    0.0000   -2.3053    0.0000 C   0  0  0  0  0  0  0  0  0  0  0  0
  1  2  1  0  0  0  0
  2  3  2  0  0  0  0
  2  4  1  0  0  0  0
  4  5  1  0  0  0  0
  4  6  1  0  0  0  0
M  END
>  <DSSTox_RID>
20519

>  <DSSTox_CID>
519

>  <DSSTox_Generic_SID>
20519

>  <DSSTox_FileID>
542_CPDBAS_v5d

>  <STRUCTURE_Formula>
C2H6N2O2

>  <STRUCTURE_MolecularWeight>
90.0816

>  <STRUCTURE_ChemicalType>
defined organic

>  <STRUCTURE_TestedForm_DefinedOrganic>
parent

>  <STRUCTURE_Shown>
tested chemical

>  <TestSubstance_ChemicalName>
Dimethylnitramine

>  <TestSubstance_CASRN>
4164-28-7

>  <TestSubstance_Description>
single chemical compound

>  <STRUCTURE_ChemicalName_IUPAC>
N-methyl-N-nitromethanamine

>  <STRUCTURE_SMILES>
[O-][N+](=O)N(C)C

>  <STRUCTURE_Parent_SMILES>
[O-][N+](=O)N(C)C

>  <STRUCTURE_InChI>
InChI=1/C2H6N2O2/c1-3(2)4(5)6/h1-2H3

>  <STRUCTURE_InChIKey>
XRWKADIRZXTTLH-UHFFFAOYAN

>  <StudyType>
Carcinogenicity

>  <Endpoint>
TD50; Tumor Target Sites

>  <Species>
rat

>  <TD50_Rat_mg>
0.547

>  <TD50_Rat_mmol>
0.00607

>  <ActivityScore_CPDBAS_Rat>
49

>  <TD50_Rat_Note>
TD50 is harmonic mean of more than one positive test; greater than ten-fold variation among TD50 values for positive results

>  <TargetSites_Rat_Male>
liver; nasal cavity

>  <TargetSites_Rat_Female>
liver; nasal cavity

>  <ActivityOutcome_CPDBAS_Rat>
active

>  <ActivityOutcome_CPDBAS_SingleCellCall>
active

>  <ActivityOutcome_CPDBAS_MultiCellCall>
active

>  <ActivityOutcome_CPDBAS_MultiCellCall_Details>
multisite active; multisex active

>  <ChemicalPage_URL>
http://potency.berkeley.edu/chempages/DIMETHYLNITRAMINE.html

$$$$



  5  4  0  0  0  0  0  0  0  0999 V2000
    3.4567   -1.9945    0.0000 C   0  0  0  0  0  0  0  0  0  0  0  0
    2.3056   -1.3308    0.0000 C   0  0  0  0  0  0  0  0  0  0  0  0
    1.1511   -1.9945    0.0000 C   0  0  0  0  0  0  0  0  0  0  0  0
    0.0000   -1.3308    0.0000 Cl  0  0  0  0  0  0  0  0  0  0  0  0
    2.3056    0.0000    0.0000 C   0  0  0  0  0  0  0  0  0  0  0  0
  1  2  1  0  0  0  0
  2  3  2  0  0  0  0
  2  5  1  0  0  0  0
  3  4  1  0  0  0  0
M  END
>  <DSSTox_RID>
20520

>  <DSSTox_CID>
520

>  <DSSTox_Generic_SID>
20520

>  <DSSTox_FileID>
544_CPDBAS_v5d

>  <STRUCTURE_Formula>
C4H7Cl

>  <STRUCTURE_MolecularWeight>
90.5514

>  <STRUCTURE_ChemicalType>
defined organic

>  <STRUCTURE_TestedForm_DefinedOrganic>
parent

>  <STRUCTURE_Shown>
tested chemical

>  <TestSubstance_ChemicalName>
Dimethylvinyl chloride (DMVC)

>  <TestSubstance_CASRN>
513-37-1

>  <TestSubstance_Description>
single chemical compound

>  <STRUCTURE_ChemicalName_IUPAC>
1-chloro-2-methylprop-1-ene

>  <STRUCTURE_SMILES>
C\C(C)=C/Cl

>  <STRUCTURE_Parent_SMILES>
C\C(C)=C/Cl

>  <STRUCTURE_InChI>
InChI=1/C4H7Cl/c1-4(2)3-5/h3H,1-2H3

>  <STRUCTURE_InChIKey>
KWISWUFGPUHDRY-UHFFFAOYAK

>  <StudyType>
Carcinogenicity

>  <Endpoint>
TD50; Tumor Target Sites

>  <Species>
rat; mouse

>  <ActivityOutcome_CPDBAS_Mutagenicity>
active

>  <TD50_Rat_mg>
31.8

>  <TD50_Rat_mmol>
0.351

>  <ActivityScore_CPDBAS_Rat>
30

>  <TD50_Rat_Note>
TD50 is harmonic mean of more than one positive test

>  <TargetSites_Rat_Male>
esophagus; nasal cavity; oral cavity; skin; stomach

>  <TargetSites_Rat_Female>
esophagus; nasal cavity; oral cavity; stomach

>  <ActivityOutcome_CPDBAS_Rat>
active

>  <TD50_Mouse_mg>
14.9

>  <TD50_Mouse_mmol>
0.165

>  <ActivityScore_CPDBAS_Mouse>
37

>  <TD50_Mouse_Note>
TD50 is harmonic mean of more than one positive test

>  <TargetSites_Mouse_Male>
preputial gland; stomach

>  <TargetSites_Mouse_Female>
stomach

>  <ActivityOutcome_CPDBAS_Mouse>
active

>  <ActivityOutcome_CPDBAS_SingleCellCall>
active

>  <ActivityOutcome_CPDBAS_MultiCellCall>
active

>  <ActivityOutcome_CPDBAS_MultiCellCall_Details>
multisite active; multisex active; multispecies active

>  <NTP_TechnicalReport>
TR 316

>  <ChemicalPage_URL>
http://potency.berkeley.edu/chempages/DIMETHYLVINYL%20CHLORIDE.html

$$$$



 21 21  0  0  0  0  0  0  0  0999 V2000
    0.4767   -1.4763    0.0000 C   0  0  0  0  0  0  0  0  0  0  0  0
    1.1379   -2.6065    0.0000 S   0  0  0  0  0  0  0  0  0  0  0  0
    0.0000   -3.2678    0.0000 O   0  0  0  0  0  0  0  0  0  0  0  0
    2.2682   -1.9530    0.0000 O   0  0  0  0  0  0  0  0  0  0  0  0
    1.7915   -3.7445    0.0000 O   0  0  0  0  0  0  0  0  0  0  0  0
    3.0986   -3.7445    0.0000 C   0  0  0  0  0  0  0  0  0  0  0  0
    3.7598   -2.6065    0.0000 C   0  0  0  0  0  0  0  0  0  0  0  0
    5.0669   -2.6065    0.0000 C   0  0  0  0  0  0  0  0  0  0  0  0
    5.7205   -3.7445    0.0000 C   0  0  0  0  0  0  0  0  0  0  0  0
    5.0669   -4.8824    0.0000 C   0  0  0  0  0  0  0  0  0  0  0  0
    3.7598   -4.8824    0.0000 C   0  0  0  0  0  0  0  0  0  0  0  0
    3.0986   -6.0127    0.0000 C   0  0  0  0  0  0  0  0  0  0  0  0
    2.4451   -7.1506    0.0000 C   0  0  0  0  0  0  0  0  0  0  0  0
    1.9683   -5.3591    0.0000 C   0  0  0  0  0  0  0  0  0  0  0  0
    4.2366   -6.6739    0.0000 C   0  0  0  0  0  0  0  0  0  0  0  0
    7.0353   -3.7445    0.0000 N   0  3  0  0  0  0  0  0  0  0  0  0
    7.6888   -4.8824    0.0000 O   0  5  0  0  0  0  0  0  0  0  0  0
    7.6888   -2.6065    0.0000 O   0  0  0  0  0  0  0  0  0  0  0  0
    2.9064   -1.1379    0.0000 N   0  3  0  0  0  0  0  0  0  0  0  0
    1.5916   -1.1379    0.0000 O   0  0  0  0  0  0  0  0  0  0  0  0
    3.5599    0.0000    0.0000 O   0  5  0  0  0  0  0  0  0  0  0  0
  1  2  1  0  0  0  0
  2  3  2  0  0  0  0
  2  4  2  0  0  0  0
  2  5  1  0  0  0  0
  5  6  1  0  0  0  0
  6  7  2  0  0  0  0
  6 11  1  0  0  0  0
  7  8  1  0  0  0  0
  7 19  1  0  0  0  0
  8  9  2  0  0  0  0
  9 10  1  0  0  0  0
  9 16  1  0  0  0  0
 10 11  2  0  0  0  0
 11 12  1  0  0  0  0
 12 13  1  0  0  0  0
 12 14  1  0  0  0  0
 12 15  1  0  0  0  0
 16 17  1  0  0  0  0
 16 18  2  0  0  0  0
 19 20  2  0  0  0  0
 19 21  1  0  0  0  0
M  END
>  <DSSTox_RID>
20522

>  <DSSTox_CID>
522

>  <DSSTox_Generic_SID>
20522

>  <DSSTox_FileID>
545_CPDBAS_v5d

>  <STRUCTURE_Formula>
C11H14N2O7S

>  <STRUCTURE_MolecularWeight>
318.3008

>  <STRUCTURE_ChemicalType>
defined organic

>  <STRUCTURE_TestedForm_DefinedOrganic>
parent

>  <STRUCTURE_Shown>
tested chemical

>  <TestSubstance_ChemicalName>
2,4-Dinitro-6-tert-butylphenylmethanesulfonate

>  <TestSubstance_CASRN>
29110-68-7

>  <TestSubstance_Description>
single chemical compound

>  <STRUCTURE_ChemicalName_IUPAC>
2-(1,1-dimethylethyl)-4,6-dinitrophenyl methanesulfonate

>  <STRUCTURE_SMILES>
CS(=O)(=O)OC1=C(C=C(C=C1C(C)(C)C)[N+]([O-])=O)[N+](=O)[O-]

>  <STRUCTURE_Parent_SMILES>
CS(=O)(=O)OC1=C(C=C(C=C1C(C)(C)C)[N+]([O-])=O)[N+](=O)[O-]

>  <STRUCTURE_InChI>
InChI=1/C11H14N2O7S/c1-11(2,3)8-5-7(12(14)15)6-9(13(16)17)10(8)20-21(4,18)19/h5-6H,1-4H3

>  <STRUCTURE_InChIKey>
XKKQXGQLSJXQOS-UHFFFAOYAO

>  <StudyType>
Carcinogenicity

>  <Endpoint>
TD50; Tumor Target Sites

>  <Species>
rat

>  <ActivityScore_CPDBAS_Rat>
0

>  <TD50_Rat_Note>
no positive results

>  <TargetSites_Rat_Male>
no positive results

>  <TargetSites_Rat_Female>
no positive results

>  <ActivityOutcome_CPDBAS_Rat>
inactive

>  <ActivityOutcome_CPDBAS_SingleCellCall>
inactive

>  <ActivityOutcome_CPDBAS_MultiCellCall>
inactive

>  <ActivityOutcome_CPDBAS_MultiCellCall_Details>
multisex inactive

>  <ChemicalPage_URL>
http://potency.berkeley.edu/chempages/2,4-DINITRO-6-tert-BUTYLPHENYL%20METHANESULFONATE.html

$$$$



 26 26  0  0  0  0  0  0  0  0999 V2000
    3.4343   -7.0088    0.0000 C   0  0  0  0  0  0  0  0  0  0  0  0
    3.6563   -5.7239    0.0000 O   0  0  0  0  0  0  0  0  0  0  0  0
    2.1727   -7.3476    0.0000 C   0  0  0  0  0  0  0  0  0  0  0  0
    1.2499   -6.4247    0.0000 C   0  0  0  0  0  0  0  0  0  0  0  0
    0.0000   -6.7635    0.0000 C   0  0  0  0  0  0  0  0  0  0  0  0
    4.5207   -8.3054    0.0000 O   0  0  0  0  0  0  0  0  0  0  0  0
    6.2028   -8.3054    0.0000 C   0  0  0  0  0  0  0  0  0  0  0  0
    6.8570   -7.1840    0.0000 C   0  0  0  0  0  0  0  0  0  0  0  0
    6.4131   -5.9575    0.0000 C   0  0  3  0  0  0  0  0  0  0  0  0
    5.1865   -5.5136    0.0000 C   0  0  0  0  0  0  0  0  0  0  0  0
    4.9646   -4.2287    0.0000 C   0  0  0  0  0  0  0  0  0  0  0  0
    5.9575   -3.3993    0.0000 C   0  0  0  0  0  0  0  0  0  0  0  0
    5.7355   -2.1143    0.0000 C   0  0  0  0  0  0  0  0  0  0  0  0
    6.7285   -1.2849    0.0000 C   0  0  0  0  0  0  0  0  0  0  0  0
    6.5065    0.0000    0.0000 C   0  0  0  0  0  0  0  0  0  0  0  0
    7.3359   -5.0347    0.0000 C   0  0  0  0  0  0  0  0  0  0  0  0
    8.1536   -7.1840    0.0000 C   0  0  0  0  0  0  0  0  0  0  0  0
    8.8077   -8.3054    0.0000 C   0  0  0  0  0  0  0  0  0  0  0  0
    8.1536   -9.4269    0.0000 C   0  0  0  0  0  0  0  0  0  0  0  0
    6.8570   -9.4269    0.0000 C   0  0  0  0  0  0  0  0  0  0  0  0
    6.2028  -10.5599    0.0000 N   0  3  0  0  0  0  0  0  0  0  0  0
    4.9062  -10.5599    0.0000 O   0  5  0  0  0  0  0  0  0  0  0  0
    6.8570  -11.6814    0.0000 O   0  0  0  0  0  0  0  0  0  0  0  0
   10.1044   -8.3054    0.0000 N   0  3  0  0  0  0  0  0  0  0  0  0
   10.7585   -7.1840    0.0000 O   0  5  0  0  0  0  0  0  0  0  0  0
   10.7585   -9.4269    0.0000 O   0  0  0  0  0  0  0  0  0  0  0  0
  1  2  2  0  0  0  0
  1  3  1  0  0  0  0
  1  6  1  0  0  0  0
  3  4  2  0  0  0  0
  4  5  1  0  0  0  0
  6  7  1  0  0  0  0
  7  8  2  0  0  0  0
  7 20  1  0  0  0  0
  8  9  1  0  0  0  0
  8 17  1  0  0  0  0
  9 10  1  0  0  0  0
  9 16  1  0  0  0  0
 10 11  1  0  0  0  0
 11 12  1  0  0  0  0
 12 13  1  0  0  0  0
 13 14  1  0  0  0  0
 14 15  1  0  0  0  0
 17 18  2  0  0  0  0
 18 19  1  0  0  0  0
 18 24  1  0  0  0  0
 19 20  2  0  0  0  0
 20 21  1  0  0  0  0
 21 22  1  0  0  0  0
 21 23  2  0  0  0  0
 24 25  1  0  0  0  0
 24 26  2  0  0  0  0
M  END
>  <DSSTox_RID>
20521

>  <DSSTox_CID>
521

>  <DSSTox_Generic_SID>
20521

>  <DSSTox_FileID>
546_CPDBAS_v5d

>  <STRUCTURE_Formula>
C18H24N2O6

>  <STRUCTURE_MolecularWeight>
364.3974

>  <STRUCTURE_ChemicalType>
defined organic

>  <STRUCTURE_TestedForm_DefinedOrganic>
parent

>  <STRUCTURE_Shown>
tested chemical

>  <TestSubstance_ChemicalName>
Dinitro(1-methylheptyl)phenyl crotonate, commercial grade (78%)

>  <TestSubstance_CASRN>
6119-92-2

>  <TestSubstance_Description>
single chemical compound

>  <STRUCTURE_ChemicalName_IUPAC>
2-(1-methylheptyl)-4,6-dinitrophenyl (2E)-but-2-enoate

>  <STRUCTURE_SMILES>
C(=O)(/C=C/C)OC1=C(C(CCCCCC)C)C=C(C=C1[N+]([O-])=O)[N+]([O-])=O

>  <STRUCTURE_Parent_SMILES>
C(=O)(/C=C/C)OC1=C(C(CCCCCC)C)C=C(C=C1[N+]([O-])=O)[N+]([O-])=O

>  <STRUCTURE_InChI>
InChI=1/C18H24N2O6/c1-4-6-7-8-10-13(3)15-11-14(19(22)23)12-16(20(24)25)18(15)26-17(21)9-5-2/h5,9,11-13H,4,6-8,10H2,1-3H3/b9-5+

>  <STRUCTURE_InChIKey>
NIOPZPCMRQGZCE-WEVVVXLNBY

>  <StudyType>
Carcinogenicity

>  <Endpoint>
TD50; Tumor Target Sites

>  <Species>
mouse

>  <ActivityScore_CPDBAS_Mouse>
0

>  <TD50_Mouse_Note>
no positive results

>  <TargetSites_Mouse_Male>
no positive results

>  <TargetSites_Mouse_Female>
no positive results

>  <ActivityOutcome_CPDBAS_Mouse>
inactive

>  <ActivityOutcome_CPDBAS_SingleCellCall>
inactive

>  <ActivityOutcome_CPDBAS_MultiCellCall>
inactive

>  <ActivityOutcome_CPDBAS_MultiCellCall_Details>
multisex inactive

>  <ChemicalPage_URL>
http://potency.berkeley.edu/chempages/DINITRO(1-METHYLHEPTYL)PHENYL%20CROTONATE,%20COMMERCIA.html

$$$$



 13 13  0  0  0  0  0  0  0  0999 V2000
    5.7563    0.0000    0.0000 O   0  0  0  0  0  0  0  0  0  0  0  0
    4.6092   -0.6634    0.0000 C   0  0  0  0  0  0  0  0  0  0  0  0
    4.6092   -1.9902    0.0000 C   0  0  0  0  0  0  0  0  0  0  0  0
    3.4552   -2.6605    0.0000 C   0  0  0  0  0  0  0  0  0  0  0  0
    2.3011   -1.9902    0.0000 C   0  0  0  0  0  0  0  0  0  0  0  0
    2.3011   -0.6634    0.0000 C   0  0  0  0  0  0  0  0  0  0  0  0
    3.4552    0.0000    0.0000 C   0  0  0  0  0  0  0  0  0  0  0  0
    1.1540   -2.6605    0.0000 N   0  3  0  0  0  0  0  0  0  0  0  0
    1.1540   -3.9873    0.0000 O   0  0  0  0  0  0  0  0  0  0  0  0
    0.0000   -1.9902    0.0000 O   0  5  0  0  0  0  0  0  0  0  0  0
    5.7563   -2.6605    0.0000 N   0  3  0  0  0  0  0  0  0  0  0  0
    5.7563   -3.9873    0.0000 O   0  0  0  0  0  0  0  0  0  0  0  0
    6.9103   -1.9902    0.0000 O   0  5  0  0  0  0  0  0  0  0  0  0
  1  2  1  0  0  0  0
  2  3  2  0  0  0  0
  2  7  1  0  0  0  0
  3  4  1  0  0  0  0
  3 11  1  0  0  0  0
  4  5  2  0  0  0  0
  5  6  1  0  0  0  0
  5  8  1  0  0  0  0
  6  7  2  0  0  0  0
  8  9  2  0  0  0  0
  8 10  1  0  0  0  0
 11 12  2  0  0  0  0
 11 13  1  0  0  0  0
M  END
>  <DSSTox_RID>
20523

>  <DSSTox_CID>
523

>  <DSSTox_Generic_SID>
20523

>  <DSSTox_FileID>
547_CPDBAS_v5d

>  <STRUCTURE_Formula>
C6H4N2O5

>  <STRUCTURE_MolecularWeight>
184.1064

>  <STRUCTURE_ChemicalType>
defined organic

>  <STRUCTURE_TestedForm_DefinedOrganic>
parent

>  <STRUCTURE_Shown>
tested chemical

>  <TestSubstance_ChemicalName>
2,4-Dinitrophenol

>  <TestSubstance_CASRN>
51-28-5

>  <TestSubstance_Description>
single chemical compound

>  <STRUCTURE_ChemicalName_IUPAC>
2,4-dinitrophenol

>  <STRUCTURE_SMILES>
OC1=C(C=C(C=C1)[N+](=O)[O-])[N+](=O)[O-]

>  <STRUCTURE_Parent_SMILES>
OC1=C(C=C(C=C1)[N+](=O)[O-])[N+](=O)[O-]

>  <STRUCTURE_InChI>
InChI=1/C6H4N2O5/c9-6-2-1-4(7(10)11)3-5(6)8(12)13/h1-3,9H

>  <STRUCTURE_InChIKey>
UFBJCMHMOXMLKC-UHFFFAOYAV

>  <StudyType>
Carcinogenicity

>  <Endpoint>
TD50; Tumor Target Sites

>  <Species>
mouse

>  <ActivityOutcome_CPDBAS_Mutagenicity>
inactive

>  <ActivityScore_CPDBAS_Mouse>
0

>  <TargetSites_Mouse_BothSexes>
no positive results

>  <ActivityOutcome_CPDBAS_Mouse>
inactive

>  <ActivityOutcome_CPDBAS_SingleCellCall>
inactive

>  <ChemicalPage_URL>
http://potency.berkeley.edu/chempages/2,4-DINITROPHENOL.html

$$$$



 16 16  0  0  0  0  0  0  0  0999 V2000
    2.3467   -3.9783    0.0000 C   0  0  0  0  0  0  0  0  0  0  0  0
    1.2706   -4.7629    0.0000 N   0  0  0  0  0  0  0  0  0  0  0  0
    3.4298   -4.7629    0.0000 C   0  0  0  0  0  0  0  0  0  0  0  0
    1.6802   -6.0334    0.0000 C   0  0  0  0  0  0  0  0  0  0  0  0
    3.0133   -6.0334    0.0000 N   0  0  0  0  0  0  0  0  0  0  0  0
    2.3467   -2.6592    0.0000 C   0  0  0  0  0  0  0  0  0  0  0  0
    1.2011   -1.9926    0.0000 N   0  0  0  0  0  0  0  0  0  0  0  0
    4.6796   -4.3532    0.0000 N   0  0  0  0  0  0  0  0  0  0  0  0
    4.9573   -3.0480    0.0000 C   0  0  0  0  0  0  0  0  0  0  0  0
    0.0000   -4.3532    0.0000 C   0  0  0  0  0  0  0  0  0  0  0  0
    3.4923   -1.9926    0.0000 O   0  0  0  0  0  0  0  0  0  0  0  0
    5.6724   -5.2489    0.0000 N   0  0  0  0  0  0  0  0  0  0  0  0
    1.1942   -0.6665    0.0000 N   0  0  0  0  0  0  0  0  0  0  0  0
    0.0555   -2.6592    0.0000 C   0  0  0  0  0  0  0  0  0  0  0  0
    2.3398    0.0000    0.0000 O   0  0  0  0  0  0  0  0  0  0  0  0
    6.9430   -4.8323    0.0000 O   0  0  0  0  0  0  0  0  0  0  0  0
  1  2  1  0  0  0  0
  1  6  1  0  0  0  0
  1  3  2  0  0  0  0
  2  4  1  0  0  0  0
  2 10  1  0  0  0  0
  3  5  1  0  0  0  0
  3  8  1  0  0  0  0
  4  5  2  0  0  0  0
  6  7  1  0  0  0  0
  6 11  2  0  0  0  0
  7 13  1  0  0  0  0
  7 14  1  0  0  0  0
  8  9  1  0  0  0  0
  8 12  1  0  0  0  0
 12 16  2  0  0  0  0
 13 15  2  0  0  0  0
M  END
>  <DSSTox_RID>
40792

>  <DSSTox_CID>
20231

>  <DSSTox_Generic_SID>
40231

>  <DSSTox_FileID>
549_CPDBAS_v5d

>  <STRUCTURE_Formula>
C7H10N6O3

>  <STRUCTURE_MolecularWeight>
226.1927

>  <STRUCTURE_ChemicalType>
defined organic

>  <STRUCTURE_TestedForm_DefinedOrganic>
parent

>  <STRUCTURE_Shown>
tested chemical

>  <TestSubstance_ChemicalName>
Dinitrosocaffeidine

>  <TestSubstance_CASRN>
145438-97-7

>  <TestSubstance_Description>
single chemical compound

>  <STRUCTURE_ChemicalName_IUPAC>
N,1-dimethyl-4-[methyl(nitroso)amino]-N-nitroso-1H-imidazole-5-carboxamide

>  <STRUCTURE_SMILES>
O=C(N(C)N=O)C1=C(N(N=O)C)N=CN1C

>  <STRUCTURE_Parent_SMILES>
O=C(N(C)N=O)C1=C(N(N=O)C)N=CN1C

>  <STRUCTURE_InChI>
InChI=1/C7H10N6O3/c1-11-4-8-6(12(2)9-15)5(11)7(14)13(3)10-16/h4H,1-3H3

>  <STRUCTURE_InChIKey>
GMZOUDFUPHOZBW-UHFFFAOYAO

>  <StudyType>
Carcinogenicity

>  <Endpoint>
TD50; Tumor Target Sites

>  <Species>
rat

>  <TD50_Rat_mg>
0.183

>  <TD50_Rat_mmol>
0.000809

>  <ActivityScore_CPDBAS_Rat>
58

>  <TargetSites_Rat_BothSexes>
stomach

>  <ActivityOutcome_CPDBAS_Rat>
active

>  <ActivityOutcome_CPDBAS_SingleCellCall>
active

>  <Note_CPDBAS>
Rat added v5a; chemical added v5a

>  <ChemicalPage_URL>
http://potency.berkeley.edu/chempages/DINITROSOCAFFEIDINE.html

$$$$



 11 11  0  0  0  0  0  0  0  0999 V2000
    0.0000   -2.6447    0.0000 O   0  0  0  0  0  0  0  0  0  0  0  0
    0.6630   -1.4989    0.0000 N   0  0  0  0  0  0  0  0  0  0  0  0
    1.9961   -1.4989    0.0000 N   0  0  0  0  0  0  0  0  0  0  0  0
    2.5726   -0.2955    0.0000 C   0  0  0  0  0  0  0  0  0  0  0  0
    3.8697    0.0000    0.0000 C   0  0  0  0  0  0  0  0  0  0  0  0
    4.9074   -0.8287    0.0000 N   0  0  0  0  0  0  0  0  0  0  0  0
    6.1036   -0.2522    0.0000 N   0  0  0  0  0  0  0  0  0  0  0  0
    7.2062   -1.0017    0.0000 O   0  0  0  0  0  0  0  0  0  0  0  0
    2.5726   -2.6951    0.0000 C   0  0  0  0  0  0  0  0  0  0  0  0
    3.8697   -2.9906    0.0000 C   0  0  0  0  0  0  0  0  0  0  0  0
    4.9074   -2.1619    0.0000 C   0  0  0  0  0  0  0  0  0  0  0  0
  1  2  2  0  0  0  0
  2  3  1  0  0  0  0
  3  4  1  0  0  0  0
  3  9  1  0  0  0  0
  4  5  1  0  0  0  0
  5  6  1  0  0  0  0
  6  7  1  0  0  0  0
  6 11  1  0  0  0  0
  7  8  2  0  0  0  0
  9 10  1  0  0  0  0
 10 11  1  0  0  0  0
M  END
>  <DSSTox_RID>
20525

>  <DSSTox_CID>
525

>  <DSSTox_Generic_SID>
20525

>  <DSSTox_FileID>
550_CPDBAS_v5d

>  <STRUCTURE_Formula>
C5H10N4O2

>  <STRUCTURE_MolecularWeight>
158.1596

>  <STRUCTURE_ChemicalType>
defined organic

>  <STRUCTURE_TestedForm_DefinedOrganic>
parent

>  <STRUCTURE_Shown>
tested chemical

>  <TestSubstance_ChemicalName>
Dinitrosohomopiperazine

>  <TestSubstance_CASRN>
55557-00-1

>  <TestSubstance_Description>
single chemical compound

>  <STRUCTURE_ChemicalName_IUPAC>
1,4-dinitroso-1,4-diazepane

>  <STRUCTURE_SMILES>
O=NN(CCN1N=O)CCC1

>  <STRUCTURE_Parent_SMILES>
O=NN(CCN1N=O)CCC1

>  <STRUCTURE_InChI>
InChI=1/C5H10N4O2/c10-6-8-2-1-3-9(7-11)5-4-8/h1-5H2

>  <STRUCTURE_InChIKey>
FUCMFBXWLUGVIZ-UHFFFAOYAK

>  <StudyType>
Carcinogenicity

>  <Endpoint>
TD50; Tumor Target Sites

>  <Species>
rat

>  <ActivityOutcome_CPDBAS_Mutagenicity>
active

>  <TD50_Rat_mg>
0.0615

>  <TD50_Rat_mmol>
0.000389

>  <ActivityScore_CPDBAS_Rat>
61

>  <TD50_Rat_Note>
TD50 is harmonic mean of more than one positive test

>  <TargetSites_Rat_Female>
esophagus; liver; nasal cavity; oral cavity

>  <ActivityOutcome_CPDBAS_Rat>
active

>  <ActivityOutcome_CPDBAS_SingleCellCall>
active

>  <ActivityOutcome_CPDBAS_MultiCellCall>
active

>  <ActivityOutcome_CPDBAS_MultiCellCall_Details>
multisite active

>  <ChemicalPage_URL>
http://potency.berkeley.edu/chempages/DINITROSOHOMOPIPERAZINE.html

$$$$



 13 14  0  0  0  0  0  0  0  0999 V2000
    0.0000   -1.6036    0.0000 O   0  0  0  0  0  0  0  0  0  0  0  0
    1.1114   -0.9605    0.0000 N   0  0  0  0  0  0  0  0  0  0  0  0
    2.2148   -1.5718    0.0000 N   0  0  0  0  0  0  0  0  0  0  0  0
    2.6832   -0.5319    0.0000 C   0  0  0  0  0  0  0  0  0  0  0  0
    3.7152    0.0000    0.0000 N   0  0  0  0  0  0  0  0  0  0  0  0
    4.9377   -0.3572    0.0000 C   0  0  0  0  0  0  0  0  0  0  0  0
    5.5410   -1.2860    0.0000 N   0  0  0  0  0  0  0  0  0  0  0  0
    5.3981   -2.5720    0.0000 C   0  0  0  0  0  0  0  0  0  0  0  0
    4.1835   -3.0721    0.0000 N   0  0  0  0  0  0  0  0  0  0  0  0
    2.8261   -2.7864    0.0000 C   0  0  0  0  0  0  0  0  0  0  0  0
    4.6122   -1.4289    0.0000 C   0  0  0  0  0  0  0  0  0  0  0  0
    6.7952   -0.9288    0.0000 N   0  0  0  0  0  0  0  0  0  0  0  0
    7.9384   -1.6432    0.0000 O   0  0  0  0  0  0  0  0  0  0  0  0
  1  2  2  0  0  0  0
  2  3  1  0  0  0  0
  3  4  1  0  0  0  0
  3 10  1  0  0  0  0
  4  5  1  0  0  0  0
  5  6  1  0  0  0  0
  5 11  1  0  0  0  0
  6  7  1  0  0  0  0
  7  8  1  0  0  0  0
  7 12  1  0  0  0  0
  8  9  1  0  0  0  0
  9 10  1  0  0  0  0
  9 11  1  0  0  0  0
 12 13  2  0  0  0  0
M  END
>  <DSSTox_RID>
20526

>  <DSSTox_CID>
526

>  <DSSTox_Generic_SID>
20526

>  <DSSTox_FileID>
551_CPDBAS_v5d

>  <STRUCTURE_Formula>
C5H10N6O2

>  <STRUCTURE_MolecularWeight>
186.1719

>  <STRUCTURE_ChemicalType>
defined organic

>  <STRUCTURE_TestedForm_DefinedOrganic>
parent

>  <STRUCTURE_Shown>
tested chemical

>  <TestSubstance_ChemicalName>
N,N-Dinitrosopentamethylenetetramine

>  <TestSubstance_CASRN>
101-25-7

>  <TestSubstance_Description>
single chemical compound

>  <STRUCTURE_ChemicalName_IUPAC>
3,7-dinitroso-1,3,5,7-tetraazabicyclo[3.3.1]nonane

>  <STRUCTURE_SMILES>
O=NN1CN(C2)CN(N=O)CN2C1

>  <STRUCTURE_Parent_SMILES>
O=NN1CN(C2)CN(N=O)CN2C1

>  <STRUCTURE_InChI>
InChI=1/C5H10N6O2/c12-6-10-2-8-1-9(4-10)5-11(3-8)7-13/h1-5H2

>  <STRUCTURE_InChIKey>
MWRWFPQBGSZWNV-UHFFFAOYAW

>  <StudyType>
Carcinogenicity

>  <Endpoint>
TD50; Tumor Target Sites

>  <Species>
rat

>  <ActivityScore_CPDBAS_Rat>
0

>  <TD50_Rat_Note>
no positive results

>  <TargetSites_Rat_Male>
no positive results

>  <ActivityOutcome_CPDBAS_Rat>
inactive

>  <ActivityOutcome_CPDBAS_SingleCellCall>
inactive

>  <ChemicalPage_URL>
http://potency.berkeley.edu/chempages/N,N-DINITROSOPENTAMETHYLENETETRAMINE.html

$$$$



 10 10  0  0  0  0  0  0  0  0999 V2000
    0.0000    0.0000    0.0000 O   0  0  0  0  0  0  0  0  0  0  0  0
    0.6654   -1.1511    0.0000 N   0  0  0  0  0  0  0  0  0  0  0  0
    1.9961   -1.1511    0.0000 N   0  0  0  0  0  0  0  0  0  0  0  0
    2.6614    0.0000    0.0000 C   0  0  0  0  0  0  0  0  0  0  0  0
    3.9921    0.0000    0.0000 C   0  0  0  0  0  0  0  0  0  0  0  0
    4.6575   -1.1511    0.0000 N   0  0  0  0  0  0  0  0  0  0  0  0
    5.9882   -1.1511    0.0000 N   0  0  0  0  0  0  0  0  0  0  0  0
    6.6535   -2.3021    0.0000 O   0  0  0  0  0  0  0  0  0  0  0  0
    3.9921   -2.3021    0.0000 C   0  0  0  0  0  0  0  0  0  0  0  0
    2.6614   -2.3021    0.0000 C   0  0  0  0  0  0  0  0  0  0  0  0
  1  2  2  0  0  0  0
  2  3  1  0  0  0  0
  3  4  1  0  0  0  0
  3 10  1  0  0  0  0
  4  5  1  0  0  0  0
  5  6  1  0  0  0  0
  6  7  1  0  0  0  0
  6  9  1  0  0  0  0
  7  8  2  0  0  0  0
  9 10  1  0  0  0  0
M  END
>  <DSSTox_RID>
20527

>  <DSSTox_CID>
527

>  <DSSTox_Generic_SID>
20527

>  <DSSTox_FileID>
552_CPDBAS_v5d

>  <STRUCTURE_Formula>
C4H8N4O2

>  <STRUCTURE_MolecularWeight>
144.1328

>  <STRUCTURE_ChemicalType>
defined organic

>  <STRUCTURE_TestedForm_DefinedOrganic>
parent

>  <STRUCTURE_Shown>
tested chemical

>  <TestSubstance_ChemicalName>
Dinitrosopiperazine

>  <TestSubstance_CASRN>
140-79-4

>  <TestSubstance_Description>
single chemical compound

>  <STRUCTURE_ChemicalName_IUPAC>
1,4-dinitrosopiperazine

>  <STRUCTURE_SMILES>
O=NN1CCN(N=O)CC1

>  <STRUCTURE_Parent_SMILES>
O=NN1CCN(N=O)CC1

>  <STRUCTURE_InChI>
InChI=1/C4H8N4O2/c9-5-7-1-2-8(6-10)4-3-7/h1-4H2

>  <STRUCTURE_InChIKey>
WNSYEWGYAFFSSQ-UHFFFAOYAA

>  <StudyType>
Carcinogenicity

>  <Endpoint>
TD50; Tumor Target Sites

>  <Species>
mouse

>  <ActivityOutcome_CPDBAS_Mutagenicity>
active

>  <TD50_Mouse_mg>
3.6

>  <TD50_Mouse_mmol>
0.025

>  <ActivityScore_CPDBAS_Mouse>
46

>  <TD50_Mouse_Note>
TD50 is harmonic mean of more than one positive test

>  <TargetSites_Mouse_Male>
stomach

>  <TargetSites_Mouse_Female>
stomach

>  <ActivityOutcome_CPDBAS_Mouse>
active

>  <ActivityOutcome_CPDBAS_SingleCellCall>
active

>  <ActivityOutcome_CPDBAS_MultiCellCall>
active

>  <ActivityOutcome_CPDBAS_MultiCellCall_Details>
multisex active

>  <ChemicalPage_URL>
http://potency.berkeley.edu/chempages/DINITROSOPIPERAZINE.html

$$$$



 13 13  0  0  0  0  0  0  0  0999 V2000
    3.4548   -3.9869    0.0000 C   0  0  0  0  0  0  0  0  0  0  0  0
    3.4548   -2.6602    0.0000 C   0  0  0  0  0  0  0  0  0  0  0  0
    2.3009   -1.9900    0.0000 C   0  0  0  0  0  0  0  0  0  0  0  0
    2.3009   -0.6633    0.0000 C   0  0  0  0  0  0  0  0  0  0  0  0
    3.4548    0.0000    0.0000 C   0  0  0  0  0  0  0  0  0  0  0  0
    4.6088   -0.6633    0.0000 C   0  0  0  0  0  0  0  0  0  0  0  0
    4.6088   -1.9900    0.0000 C   0  0  0  0  0  0  0  0  0  0  0  0
    5.7558   -2.6602    0.0000 N   0  3  0  0  0  0  0  0  0  0  0  0
    5.7558   -3.9869    0.0000 O   0  0  0  0  0  0  0  0  0  0  0  0
    6.9097   -1.9900    0.0000 O   0  5  0  0  0  0  0  0  0  0  0  0
    1.1539   -2.6602    0.0000 N   0  3  0  0  0  0  0  0  0  0  0  0
    1.1539   -3.9869    0.0000 O   0  0  0  0  0  0  0  0  0  0  0  0
    0.0000   -1.9900    0.0000 O   0  5  0  0  0  0  0  0  0  0  0  0
  1  2  1  0  0  0  0
  2  3  2  0  0  0  0
  2  7  1  0  0  0  0
  3  4  1  0  0  0  0
  3 11  1  0  0  0  0
  4  5  2  0  0  0  0
  5  6  1  0  0  0  0
  6  7  2  0  0  0  0
  7  8  1  0  0  0  0
  8  9  2  0  0  0  0
  8 10  1  0  0  0  0
 11 12  2  0  0  0  0
 11 13  1  0  0  0  0
M  END
>  <DSSTox_RID>
20528

>  <DSSTox_CID>
528

>  <DSSTox_Generic_SID>
20528

>  <DSSTox_FileID>
553_CPDBAS_v5d

>  <STRUCTURE_Formula>
C7H6N2O4

>  <STRUCTURE_MolecularWeight>
182.1335

>  <STRUCTURE_ChemicalType>
defined organic

>  <STRUCTURE_TestedForm_DefinedOrganic>
parent

>  <STRUCTURE_Shown>
tested chemical

>  <TestSubstance_ChemicalName>
2,6-Dinitrotoluene

>  <TestSubstance_CASRN>
606-20-2

>  <TestSubstance_Description>
single chemical compound

>  <STRUCTURE_ChemicalName_IUPAC>
2-methyl-1,3-dinitrobenzene

>  <STRUCTURE_SMILES>
CC1=C(C=CC=C1[N+](=O)[O-])[N+](=O)[O-]

>  <STRUCTURE_Parent_SMILES>
CC1=C(C=CC=C1[N+](=O)[O-])[N+](=O)[O-]

>  <STRUCTURE_InChI>
InChI=1/C7H6N2O4/c1-5-6(8(10)11)3-2-4-7(5)9(12)13/h2-4H,1H3

>  <STRUCTURE_InChIKey>
XTRDKALNCIHHNI-UHFFFAOYAI

>  <StudyType>
Carcinogenicity

>  <Endpoint>
TD50; Tumor Target Sites

>  <Species>
rat

>  <TD50_Rat_mg>
0.292

>  <TD50_Rat_mmol>
0.0016

>  <ActivityScore_CPDBAS_Rat>
55

>  <TD50_Rat_Note>
TD50 is harmonic mean of more than one positive test

>  <TargetSites_Rat_Male>
liver

>  <ActivityOutcome_CPDBAS_Rat>
active

>  <ActivityOutcome_CPDBAS_SingleCellCall>
active

>  <ChemicalPage_URL>
http://potency.berkeley.edu/chempages/2,6-DINITROTOLUENE.html

$$$$



 13 13  0  0  0  0  0  0  0  0999 V2000
    5.7563    0.0000    0.0000 C   0  0  0  0  0  0  0  0  0  0  0  0
    4.6092   -0.6634    0.0000 C   0  0  0  0  0  0  0  0  0  0  0  0
    4.6092   -1.9902    0.0000 C   0  0  0  0  0  0  0  0  0  0  0  0
    3.4552   -2.6605    0.0000 C   0  0  0  0  0  0  0  0  0  0  0  0
    2.3011   -1.9902    0.0000 C   0  0  0  0  0  0  0  0  0  0  0  0
    2.3011   -0.6634    0.0000 C   0  0  0  0  0  0  0  0  0  0  0  0
    3.4552    0.0000    0.0000 C   0  0  0  0  0  0  0  0  0  0  0  0
    1.1540   -2.6605    0.0000 N   0  3  0  0  0  0  0  0  0  0  0  0
    1.1540   -3.9873    0.0000 O   0  0  0  0  0  0  0  0  0  0  0  0
    0.0000   -1.9902    0.0000 O   0  5  0  0  0  0  0  0  0  0  0  0
    5.7563   -2.6605    0.0000 N   0  3  0  0  0  0  0  0  0  0  0  0
    5.7563   -3.9873    0.0000 O   0  0  0  0  0  0  0  0  0  0  0  0
    6.9103   -1.9902    0.0000 O   0  5  0  0  0  0  0  0  0  0  0  0
  1  2  1  0  0  0  0
  2  3  2  0  0  0  0
  2  7  1  0  0  0  0
  3  4  1  0  0  0  0
  3 11  1  0  0  0  0
  4  5  2  0  0  0  0
  5  6  1  0  0  0  0
  5  8  1  0  0  0  0
  6  7  2  0  0  0  0
  8  9  2  0  0  0  0
  8 10  1  0  0  0  0
 11 12  2  0  0  0  0
 11 13  1  0  0  0  0
M  END
>  <DSSTox_RID>
20531

>  <DSSTox_CID>
529

>  <DSSTox_Generic_SID>
21972

>  <DSSTox_FileID>
556_CPDBAS_v5d

>  <STRUCTURE_Formula>
C7H6N2O4

>  <STRUCTURE_MolecularWeight>
182.1354

>  <STRUCTURE_ChemicalType>
defined organic

>  <STRUCTURE_TestedForm_DefinedOrganic>
parent

>  <STRUCTURE_Shown>
tested chemical

>  <TestSubstance_ChemicalName>
2,4-Dinitrotoluene, practical grade

>  <TestSubstance_CASRN>
121-14-2

>  <TestSubstance_Description>
single chemical compound

>  <ChemicalNote>
>90% purity

>  <STRUCTURE_ChemicalName_IUPAC>
1-methyl-2,4-dinitrobenzene

>  <STRUCTURE_SMILES>
CC1=C(C=C(C=C1)[N+](=O)[O-])[N+](=O)[O-]

>  <STRUCTURE_Parent_SMILES>
CC1=C(C=C(C=C1)[N+](=O)[O-])[N+](=O)[O-]

>  <STRUCTURE_InChI>
InChI=1/C7H6N2O4/c1-5-2-3-6(8(10)11)4-7(5)9(12)13/h2-4H,1H3

>  <STRUCTURE_InChIKey>
RMBFBMJGBANMMK-UHFFFAOYAC

>  <StudyType>
Carcinogenicity

>  <Endpoint>
TD50; Tumor Target Sites

>  <Species>
rat; mouse

>  <ActivityOutcome_CPDBAS_Mutagenicity>
active

>  <ActivityScore_CPDBAS_Rat>
0

>  <TD50_Rat_Note>
no positive results

>  <TargetSites_Rat_Male>
no positive results

>  <TargetSites_Rat_Female>
no positive results

>  <ActivityOutcome_CPDBAS_Rat>
inactive

>  <ActivityScore_CPDBAS_Mouse>
0

>  <TD50_Mouse_Note>
no positive results

>  <TargetSites_Mouse_Male>
no positive results

>  <TargetSites_Mouse_Female>
no positive results

>  <ActivityOutcome_CPDBAS_Mouse>
inactive

>  <ActivityOutcome_CPDBAS_SingleCellCall>
inactive

>  <ActivityOutcome_CPDBAS_MultiCellCall>
inactive

>  <ActivityOutcome_CPDBAS_MultiCellCall_Details>
multisex inactive; multispecies inactive

>  <Note_CPDBAS>
TargetSites_Rat modified v3a; TD50_Rat_Note modified v5b

>  <NTP_TechnicalReport>
TR 54; NTP-assigned level of evidence of carcinogenicity is "positive" for rat; noting that "these experiments were particularly difficult to evaluate".

>  <ChemicalPage_URL>
http://potency.berkeley.edu/chempages/2,4-DINITROTOLUENE,%20PRACTICAL%20GRADE.html

$$$$



  6  6  0  0  0  0  0  0  0  0999 V2000
    2.3036   -1.9950    0.0000 C   0  0  0  0  0  0  0  0  0  0  0  0
    1.1518   -2.6600    0.0000 C   0  0  0  0  0  0  0  0  0  0  0  0
    0.0000   -1.9950    0.0000 O   0  0  0  0  0  0  0  0  0  0  0  0
    0.0000   -0.6650    0.0000 C   0  0  0  0  0  0  0  0  0  0  0  0
    1.1518    0.0000    0.0000 C   0  0  0  0  0  0  0  0  0  0  0  0
    2.3036   -0.6650    0.0000 O   0  0  0  0  0  0  0  0  0  0  0  0
  1  2  1  0  0  0  0
  1  6  1  0  0  0  0
  2  3  1  0  0  0  0
  3  4  1  0  0  0  0
  4  5  1  0  0  0  0
  5  6  1  0  0  0  0
M  END
>  <DSSTox_RID>
20533

>  <DSSTox_CID>
533

>  <DSSTox_Generic_SID>
20533

>  <DSSTox_FileID>
558_CPDBAS_v5d

>  <STRUCTURE_Formula>
C4H8O2

>  <STRUCTURE_MolecularWeight>
88.1051

>  <STRUCTURE_ChemicalType>
defined organic

>  <STRUCTURE_TestedForm_DefinedOrganic>
parent

>  <STRUCTURE_Shown>
tested chemical

>  <TestSubstance_ChemicalName>
1,4-Dioxane

>  <TestSubstance_CASRN>
123-91-1

>  <TestSubstance_Description>
single chemical compound

>  <STRUCTURE_ChemicalName_IUPAC>
1,4-dioxane

>  <STRUCTURE_SMILES>
C1COCCO1

>  <STRUCTURE_Parent_SMILES>
C1COCCO1

>  <STRUCTURE_InChI>
InChI=1/C4H8O2/c1-2-6-4-3-5-1/h1-4H2

>  <STRUCTURE_InChIKey>
RYHBNJHYFVUHQT-UHFFFAOYAN

>  <StudyType>
Carcinogenicity

>  <Endpoint>
TD50; Tumor Target Sites

>  <Species>
rat; mouse

>  <ActivityOutcome_CPDBAS_Mutagenicity>
inactive

>  <TD50_Rat_mg>
267

>  <TD50_Rat_mmol>
3.03

>  <ActivityScore_CPDBAS_Rat>
21

>  <TD50_Rat_Note>
TD50 is harmonic mean of more than one positive test; greater than ten-fold variation among TD50 values for positive results

>  <TargetSites_Rat_Male>
liver; mammary gland; nasal cavity; peritoneal cavity; subcutaneous tissue

>  <TargetSites_Rat_Female>
liver; mammary gland; nasal cavity

>  <ActivityOutcome_CPDBAS_Rat>
active

>  <TD50_Mouse_mg>
204

>  <TD50_Mouse_mmol>
2.32

>  <ActivityScore_CPDBAS_Mouse>
24

>  <TD50_Mouse_Note>
TD50 is harmonic mean of more than one positive test; greater than ten-fold variation among TD50 values for positive results

>  <TargetSites_Mouse_Male>
liver

>  <TargetSites_Mouse_Female>
liver

>  <ActivityOutcome_CPDBAS_Mouse>
active

>  <ActivityOutcome_CPDBAS_SingleCellCall>
active

>  <ActivityOutcome_CPDBAS_MultiCellCall>
active

>  <ActivityOutcome_CPDBAS_MultiCellCall_Details>
multisite active; multisex active; multispecies active

>  <Note_CPDBAS>
TD50_Rat modified v2a; TD50_Mouse modified v2a; TargetSites_Rat_Male modified v2a; TargetSites_Rat_Female modified v2a

>  <NTP_TechnicalReport>
TR 80; additional results included in CPDB

>  <ChemicalPage_URL>
http://potency.berkeley.edu/chempages/1,4-DIOXANE.html

$$$$



 24 24  0  0  0  0  0  0  0  0999 V2000
    7.3016   -4.7827    0.0000 S   0  0  0  0  0  0  0  0  0  0  0  0
    7.3016   -3.4542    0.0000 P   0  0  0  0  0  0  0  0  0  0  0  0
    5.9837   -3.4542    0.0000 S   0  0  0  0  0  0  0  0  0  0  0  0
    5.3141   -2.2957    0.0000 C   0  0  3  0  0  0  0  0  0  0  0  0
    3.9856   -2.2957    0.0000 C   0  0  3  0  0  0  0  0  0  0  0  0
    3.3160   -3.4542    0.0000 S   0  0  0  0  0  0  0  0  0  0  0  0
    1.9875   -3.4542    0.0000 P   0  0  0  0  0  0  0  0  0  0  0  0
    1.9875   -2.1150    0.0000 S   0  0  0  0  0  0  0  0  0  0  0  0
    1.9875   -4.7827    0.0000 O   0  0  0  0  0  0  0  0  0  0  0  0
    3.1460   -5.4417    0.0000 C   0  0  0  0  0  0  0  0  0  0  0  0
    3.1460   -6.7702    0.0000 C   0  0  0  0  0  0  0  0  0  0  0  0
    0.6590   -3.4542    0.0000 O   0  0  0  0  0  0  0  0  0  0  0  0
    0.0000   -4.6020    0.0000 C   0  0  0  0  0  0  0  0  0  0  0  0
    0.6590   -5.7499    0.0000 C   0  0  0  0  0  0  0  0  0  0  0  0
    3.3160   -1.1479    0.0000 O   0  0  0  0  0  0  0  0  0  0  0  0
    3.9856    0.0000    0.0000 C   0  0  0  0  0  0  0  0  0  0  0  0
    5.3141    0.0000    0.0000 C   0  0  0  0  0  0  0  0  0  0  0  0
    5.9837   -1.1479    0.0000 O   0  0  0  0  0  0  0  0  0  0  0  0
    7.3016   -2.1150    0.0000 O   0  0  0  0  0  0  0  0  0  0  0  0
    8.4601   -1.4561    0.0000 C   0  0  0  0  0  0  0  0  0  0  0  0
    8.4601   -0.1275    0.0000 C   0  0  0  0  0  0  0  0  0  0  0  0
    8.6408   -3.4542    0.0000 O   0  0  0  0  0  0  0  0  0  0  0  0
    9.2997   -4.6020    0.0000 C   0  0  0  0  0  0  0  0  0  0  0  0
   10.6283   -4.6020    0.0000 C   0  0  0  0  0  0  0  0  0  0  0  0
  1  2  2  0  0  0  0
  2  3  1  0  0  0  0
  2 19  1  0  0  0  0
  2 22  1  0  0  0  0
  3  4  1  0  0  0  0
  4  5  1  0  0  0  0
  4 18  1  0  0  0  0
  5  6  1  0  0  0  0
  5 15  1  0  0  0  0
  6  7  1  0  0  0  0
  7  8  2  0  0  0  0
  7  9  1  0  0  0  0
  7 12  1  0  0  0  0
  9 10  1  0  0  0  0
 10 11  1  0  0  0  0
 12 13  1  0  0  0  0
 13 14  1  0  0  0  0
 15 16  1  0  0  0  0
 16 17  1  0  0  0  0
 17 18  1  0  0  0  0
 19 20  1  0  0  0  0
 20 21  1  0  0  0  0
 22 23  1  0  0  0  0
 23 24  1  0  0  0  0
M  END
>  <DSSTox_RID>
20534

>  <DSSTox_CID>
534

>  <DSSTox_Generic_SID>
20534

>  <DSSTox_FileID>
559_CPDBAS_v5d

>  <STRUCTURE_Formula>
C12H26O6P2S4

>  <STRUCTURE_MolecularWeight>
456.5388

>  <STRUCTURE_ChemicalType>
defined organic

>  <STRUCTURE_TestedForm_DefinedOrganic>
parent

>  <STRUCTURE_Shown>
tested chemical

>  <TestSubstance_ChemicalName>
Dioxathion

>  <TestSubstance_CASRN>
78-34-2

>  <TestSubstance_Description>
single chemical compound

>  <STRUCTURE_ChemicalName_IUPAC>
S,S'-1,4-dioxane-2,3-diyl O,O,O',O'-tetraethyl bis(dithiophosphate)

>  <STRUCTURE_SMILES>
S=P(SC1C(SP(=S)(OCC)OCC)OCCO1)(OCC)OCC

>  <STRUCTURE_Parent_SMILES>
S=P(SC1C(SP(=S)(OCC)OCC)OCCO1)(OCC)OCC

>  <STRUCTURE_InChI>
InChI=1/C12H26O6P2S4/c1-5-15-19(21,16-6-2)23-11-12(14-10-9-13-11)24-20(22,17-7-3)18-8-4/h11-12H,5-10H2,1-4H3

>  <STRUCTURE_InChIKey>
VBKKVDGJXVOLNE-UHFFFAOYAS

>  <StudyType>
Carcinogenicity

>  <Endpoint>
TD50; Tumor Target Sites

>  <Species>
rat; mouse

>  <ActivityOutcome_CPDBAS_Mutagenicity>
active

>  <ActivityScore_CPDBAS_Rat>
0

>  <TD50_Rat_Note>
no positive results

>  <TargetSites_Rat_Male>
no positive results

>  <TargetSites_Rat_Female>
no positive results

>  <ActivityOutcome_CPDBAS_Rat>
inactive

>  <ActivityScore_CPDBAS_Mouse>
0

>  <TD50_Mouse_Note>
no positive results

>  <TargetSites_Mouse_Male>
no positive results

>  <TargetSites_Mouse_Female>
no positive results

>  <ActivityOutcome_CPDBAS_Mouse>
inactive

>  <ActivityOutcome_CPDBAS_SingleCellCall>
inactive

>  <ActivityOutcome_CPDBAS_MultiCellCall>
inactive

>  <ActivityOutcome_CPDBAS_MultiCellCall_Details>
multisex inactive; multispecies inactive

>  <NTP_TechnicalReport>
TR 125

>  <ChemicalPage_URL>
http://potency.berkeley.edu/chempages/DIOXATHION.html

$$$$



 22 23  0  0  0  0  0  0  0  0999 V2000
    3.4610   -5.9839    0.0000 S   0  0  0  0  0  0  0  0  0  0  0  0
    3.4610   -4.6527    0.0000 C   0  0  0  0  0  0  0  0  0  0  0  0
    2.3073   -3.9935    0.0000 N   0  0  0  0  0  0  0  0  0  0  0  0
    1.1537   -4.6527    0.0000 C   0  0  0  0  0  0  0  0  0  0  0  0
    0.0000   -3.9935    0.0000 C   0  0  0  0  0  0  0  0  0  0  0  0
    0.0000   -2.6623    0.0000 C   0  0  0  0  0  0  0  0  0  0  0  0
    1.1537   -1.9904    0.0000 C   0  0  0  0  0  0  0  0  0  0  0  0
    2.3073   -2.6623    0.0000 C   0  0  0  0  0  0  0  0  0  0  0  0
    4.6147   -3.9935    0.0000 S   0  0  0  0  0  0  0  0  0  0  0  0
    5.7684   -4.6527    0.0000 S   0  0  0  0  0  0  0  0  0  0  0  0
    6.9094   -3.9935    0.0000 S   0  0  0  0  0  0  0  0  0  0  0  0
    8.0630   -4.6527    0.0000 S   0  0  0  0  0  0  0  0  0  0  0  0
    9.2167   -3.9935    0.0000 S   0  0  0  0  0  0  0  0  0  0  0  0
   10.3704   -4.6527    0.0000 S   0  0  0  0  0  0  0  0  0  0  0  0
   11.5241   -3.9935    0.0000 C   0  0  0  0  0  0  0  0  0  0  0  0
   12.6777   -4.6527    0.0000 S   0  0  0  0  0  0  0  0  0  0  0  0
   11.5241   -2.6623    0.0000 N   0  0  0  0  0  0  0  0  0  0  0  0
   10.3704   -1.9904    0.0000 C   0  0  0  0  0  0  0  0  0  0  0  0
   10.3704   -0.6592    0.0000 C   0  0  0  0  0  0  0  0  0  0  0  0
   11.5241    0.0000    0.0000 C   0  0  0  0  0  0  0  0  0  0  0  0
   12.6777   -0.6592    0.0000 C   0  0  0  0  0  0  0  0  0  0  0  0
   12.6777   -1.9904    0.0000 C   0  0  0  0  0  0  0  0  0  0  0  0
  1  2  2  0  0  0  0
  2  3  1  0  0  0  0
  2  9  1  0  0  0  0
  3  4  1  0  0  0  0
  3  8  1  0  0  0  0
  4  5  1  0  0  0  0
  5  6  1  0  0  0  0
  6  7  1  0  0  0  0
  7  8  1  0  0  0  0
  9 10  1  0  0  0  0
 10 11  1  0  0  0  0
 11 12  1  0  0  0  0
 12 13  1  0  0  0  0
 13 14  1  0  0  0  0
 14 15  1  0  0  0  0
 15 16  2  0  0  0  0
 15 17  1  0  0  0  0
 17 18  1  0  0  0  0
 17 22  1  0  0  0  0
 18 19  1  0  0  0  0
 19 20  1  0  0  0  0
 20 21  1  0  0  0  0
 21 22  1  0  0  0  0
M  END
>  <DSSTox_RID>
20535

>  <DSSTox_CID>
535

>  <DSSTox_Generic_SID>
20535

>  <DSSTox_FileID>
560_CPDBAS_v5d

>  <STRUCTURE_Formula>
C12H20N2S8

>  <STRUCTURE_MolecularWeight>
448.8206

>  <STRUCTURE_ChemicalType>
defined organic

>  <STRUCTURE_TestedForm_DefinedOrganic>
parent

>  <STRUCTURE_Shown>
tested chemical

>  <TestSubstance_ChemicalName>
Dipentamethylenethiuram hexasulfide

>  <TestSubstance_CASRN>
971-15-3

>  <TestSubstance_Description>
single chemical compound

>  <STRUCTURE_ChemicalName_IUPAC>
1,1'-(hexasulfane-1,6-diyldicarbonothioyl)dipiperidine

>  <STRUCTURE_SMILES>
S=C(N1CCCCC1)SSSSSSC(=S)N1CCCCC1

>  <STRUCTURE_Parent_SMILES>
S=C(N1CCCCC1)SSSSSSC(=S)N1CCCCC1

>  <STRUCTURE_InChI>
InChI=1/C12H20N2S8/c15-11(13-7-3-1-4-8-13)17-19-21-22-20-18-12(16)14-9-5-2-6-10-14/h1-10H2

>  <STRUCTURE_InChIKey>
HPFHYRNETZEPIV-UHFFFAOYAV

>  <StudyType>
Carcinogenicity

>  <Endpoint>
TD50; Tumor Target Sites

>  <Species>
mouse

>  <ActivityScore_CPDBAS_Mouse>
0

>  <TD50_Mouse_Note>
no positive results

>  <TargetSites_Mouse_Male>
no positive results

>  <TargetSites_Mouse_Female>
no positive results

>  <ActivityOutcome_CPDBAS_Mouse>
inactive

>  <ActivityOutcome_CPDBAS_SingleCellCall>
inactive

>  <ActivityOutcome_CPDBAS_MultiCellCall>
inactive

>  <ActivityOutcome_CPDBAS_MultiCellCall_Details>
multisex inactive

>  <ChemicalPage_URL>
http://potency.berkeley.edu/chempages/DIPENTAMETHYLENETHIURAM%20HEXASULFIDE.html

$$$$



 13 12  0  0  0  0  0  0  0  0999 V2000
    7.3155    0.0000    0.0000 O   0  0  0  0  0  0  0  0  0  0  0  0
    5.9881    0.0000    0.0000 N   0  0  0  0  0  0  0  0  0  0  0  0
    5.3195   -1.1577    0.0000 N   0  0  0  0  0  0  0  0  0  0  0  0
    5.9881   -2.3054    0.0000 C   0  0  0  0  0  0  0  0  0  0  0  0
    7.3155   -2.3054    0.0000 C   0  0  0  0  0  0  0  0  0  0  0  0
    7.9842   -3.4631    0.0000 C   0  0  0  0  0  0  0  0  0  0  0  0
    9.3116   -3.4631    0.0000 C   0  0  0  0  0  0  0  0  0  0  0  0
    9.9802   -4.6109    0.0000 C   0  0  0  0  0  0  0  0  0  0  0  0
    3.9921   -1.1577    0.0000 C   0  0  0  0  0  0  0  0  0  0  0  0
    3.3234   -2.3054    0.0000 C   0  0  0  0  0  0  0  0  0  0  0  0
    1.9960   -2.3054    0.0000 C   0  0  0  0  0  0  0  0  0  0  0  0
    1.3274   -3.4631    0.0000 C   0  0  0  0  0  0  0  0  0  0  0  0
    0.0000   -3.4631    0.0000 C   0  0  0  0  0  0  0  0  0  0  0  0
  1  2  2  0  0  0  0
  2  3  1  0  0  0  0
  3  4  1  0  0  0  0
  3  9  1  0  0  0  0
  4  5  1  0  0  0  0
  5  6  1  0  0  0  0
  6  7  1  0  0  0  0
  7  8  1  0  0  0  0
  9 10  1  0  0  0  0
 10 11  1  0  0  0  0
 11 12  1  0  0  0  0
 12 13  1  0  0  0  0
M  END
>  <DSSTox_RID>
20536

>  <DSSTox_CID>
536

>  <DSSTox_Generic_SID>
20536

>  <DSSTox_FileID>
561_CPDBAS_v5d

>  <STRUCTURE_Formula>
C10H22N2O

>  <STRUCTURE_MolecularWeight>
186.2966

>  <STRUCTURE_ChemicalType>
defined organic

>  <STRUCTURE_TestedForm_DefinedOrganic>
parent

>  <STRUCTURE_Shown>
tested chemical

>  <TestSubstance_ChemicalName>
Dipentylnitrosamine

>  <TestSubstance_CASRN>
13256-06-9

>  <TestSubstance_Description>
single chemical compound

>  <STRUCTURE_ChemicalName_IUPAC>
N-nitroso-N-pentylpentan-1-amine

>  <STRUCTURE_SMILES>
O=NN(CCCCC)CCCCC

>  <STRUCTURE_Parent_SMILES>
O=NN(CCCCC)CCCCC

>  <STRUCTURE_InChI>
InChI=1/C10H22N2O/c1-3-5-7-9-12(11-13)10-8-6-4-2/h3-10H2,1-2H3

>  <STRUCTURE_InChIKey>
OELWBYBVFOLSTA-UHFFFAOYAE

>  <StudyType>
Carcinogenicity

>  <Endpoint>
TD50; Tumor Target Sites

>  <Species>
rat

>  <TD50_Rat_mg>
4.03

>  <TD50_Rat_mmol>
0.0216

>  <ActivityScore_CPDBAS_Rat>
43

>  <TD50_Rat_Note>
TD50 is harmonic mean of more than one positive test

>  <TargetSites_Rat_Male>
liver

>  <TargetSites_Rat_Female>
liver

>  <ActivityOutcome_CPDBAS_Rat>
active

>  <ActivityOutcome_CPDBAS_SingleCellCall>
active

>  <ActivityOutcome_CPDBAS_MultiCellCall>
active

>  <ActivityOutcome_CPDBAS_MultiCellCall_Details>
multisex active

>  <ChemicalPage_URL>
http://potency.berkeley.edu/chempages/DIPENTYLNITROSAMINE.html

$$$$



 20 22  0  0  0  0  0  0  0  0999 V2000
    8.0649   -2.6614    0.0000 N   0  0  0  0  0  0  0  0  0  0  0  0
    6.9128   -1.9932    0.0000 C   0  0  0  0  0  0  0  0  0  0  0  0
    5.7606   -2.6614    0.0000 C   0  0  0  0  0  0  0  0  0  0  0  0
    4.6085   -1.9932    0.0000 C   0  0  0  0  0  0  0  0  0  0  0  0
    4.6085   -0.6682    0.0000 C   0  0  0  0  0  0  0  0  0  0  0  0
    5.7606    0.0000    0.0000 C   0  0  0  0  0  0  0  0  0  0  0  0
    6.9128   -0.6682    0.0000 C   0  0  0  0  0  0  0  0  0  0  0  0
    3.4564    0.0000    0.0000 N   0  0  0  0  0  0  0  0  0  0  0  0
    2.3043   -0.6682    0.0000 C   0  0  0  0  0  0  0  0  0  0  0  0
    2.3043   -1.9932    0.0000 C   0  0  0  0  0  0  0  0  0  0  0  0
    1.1521   -2.6614    0.0000 C   0  0  0  0  0  0  0  0  0  0  0  0
    0.0000   -1.9932    0.0000 C   0  0  0  0  0  0  0  0  0  0  0  0
    0.0000   -0.6682    0.0000 C   0  0  0  0  0  0  0  0  0  0  0  0
    1.1521    0.0000    0.0000 C   0  0  0  0  0  0  0  0  0  0  0  0
    9.2170   -1.9932    0.0000 C   0  0  0  0  0  0  0  0  0  0  0  0
    9.2170   -0.6682    0.0000 C   0  0  0  0  0  0  0  0  0  0  0  0
   10.3692    0.0000    0.0000 C   0  0  0  0  0  0  0  0  0  0  0  0
   11.5213   -0.6682    0.0000 C   0  0  0  0  0  0  0  0  0  0  0  0
   11.5213   -1.9932    0.0000 C   0  0  0  0  0  0  0  0  0  0  0  0
   10.3692   -2.6614    0.0000 C   0  0  0  0  0  0  0  0  0  0  0  0
  1  2  1  0  0  0  0
  1 15  1  0  0  0  0
  2  3  2  0  0  0  0
  2  7  1  0  0  0  0
  3  4  1  0  0  0  0
  4  5  2  0  0  0  0
  5  6  1  0  0  0  0
  5  8  1  0  0  0  0
  6  7  2  0  0  0  0
  8  9  1  0  0  0  0
  9 10  2  0  0  0  0
  9 14  1  0  0  0  0
 10 11  1  0  0  0  0
 11 12  2  0  0  0  0
 12 13  1  0  0  0  0
 13 14  2  0  0  0  0
 15 16  2  0  0  0  0
 15 20  1  0  0  0  0
 16 17  1  0  0  0  0
 17 18  2  0  0  0  0
 18 19  1  0  0  0  0
 19 20  2  0  0  0  0
M  END
>  <DSSTox_RID>
20538

>  <DSSTox_CID>
538

>  <DSSTox_Generic_SID>
20538

>  <DSSTox_FileID>
563_CPDBAS_v5d

>  <STRUCTURE_Formula>
C18H16N2

>  <STRUCTURE_MolecularWeight>
260.333

>  <STRUCTURE_ChemicalType>
defined organic

>  <STRUCTURE_TestedForm_DefinedOrganic>
parent

>  <STRUCTURE_Shown>
tested chemical

>  <TestSubstance_ChemicalName>
Diphenyl-p-phenylenediamine

>  <TestSubstance_CASRN>
74-31-7

>  <TestSubstance_Description>
single chemical compound

>  <STRUCTURE_ChemicalName_IUPAC>
N,N'-diphenylbenzene-1,4-diamine

>  <STRUCTURE_SMILES>
N(C1=CC=C(C=C1)NC2=CC=CC=C2)C3=CC=CC=C3

>  <STRUCTURE_Parent_SMILES>
N(C1=CC=C(C=C1)NC2=CC=CC=C2)C3=CC=CC=C3

>  <STRUCTURE_InChI>
InChI=1/C18H16N2/c1-3-7-15(8-4-1)19-17-11-13-18(14-12-17)20-16-9-5-2-6-10-16/h1-14,19-20H

>  <STRUCTURE_InChIKey>
UTGQNNCQYDRXCH-UHFFFAOYAQ

>  <StudyType>
Carcinogenicity

>  <Endpoint>
TD50; Tumor Target Sites

>  <Species>
rat; mouse

>  <ActivityOutcome_CPDBAS_Mutagenicity>
active

>  <ActivityScore_CPDBAS_Rat>
0

>  <TD50_Rat_Note>
no positive results

>  <TargetSites_Rat_Male>
no positive results

>  <TargetSites_Rat_Female>
no positive results

>  <ActivityOutcome_CPDBAS_Rat>
inactive

>  <ActivityScore_CPDBAS_Mouse>
0

>  <TD50_Mouse_Note>
no positive results

>  <TargetSites_Mouse_Male>
no positive results

>  <TargetSites_Mouse_Female>
no positive results

>  <ActivityOutcome_CPDBAS_Mouse>
inactive

>  <ActivityOutcome_CPDBAS_SingleCellCall>
inactive

>  <ActivityOutcome_CPDBAS_MultiCellCall>
inactive

>  <ActivityOutcome_CPDBAS_MultiCellCall_Details>
multisex inactive; multispecies inactive

>  <ChemicalPage_URL>
http://potency.berkeley.edu/chempages/DIPHENYL-p-PHENYLENEDIAMINE.html

$$$$



 15 16  0  0  0  0  0  0  0  0999 V2000
    3.4548    0.0000    0.0000 N   0  0  0  0  0  0  0  0  0  0  0  0
    3.4548   -1.3335    0.0000 C   0  0  0  0  0  0  0  0  0  0  0  0
    3.4548   -2.6602    0.0000 C   0  0  0  0  0  0  0  0  0  0  0  0
    4.6087   -3.3235    0.0000 C   0  0  0  0  0  0  0  0  0  0  0  0
    5.7556   -2.6602    0.0000 C   0  0  0  0  0  0  0  0  0  0  0  0
    6.9095   -3.3235    0.0000 C   0  0  0  0  0  0  0  0  0  0  0  0
    6.9095   -4.6570    0.0000 C   0  0  0  0  0  0  0  0  0  0  0  0
    5.7556   -5.3203    0.0000 C   0  0  0  0  0  0  0  0  0  0  0  0
    4.6087   -4.6570    0.0000 C   0  0  0  0  0  0  0  0  0  0  0  0
    2.3009   -3.3235    0.0000 C   0  0  0  0  0  0  0  0  0  0  0  0
    2.3009   -4.6570    0.0000 C   0  0  0  0  0  0  0  0  0  0  0  0
    1.1539   -5.3203    0.0000 C   0  0  0  0  0  0  0  0  0  0  0  0
    0.0000   -4.6570    0.0000 C   0  0  0  0  0  0  0  0  0  0  0  0
    0.0000   -3.3235    0.0000 C   0  0  0  0  0  0  0  0  0  0  0  0
    1.1539   -2.6602    0.0000 C   0  0  0  0  0  0  0  0  0  0  0  0
  1  2  3  0  0  0  0
  2  3  1  0  0  0  0
  3  4  1  0  0  0  0
  3 10  1  0  0  0  0
  4  5  2  0  0  0  0
  4  9  1  0  0  0  0
  5  6  1  0  0  0  0
  6  7  2  0  0  0  0
  7  8  1  0  0  0  0
  8  9  2  0  0  0  0
 10 11  2  0  0  0  0
 10 15  1  0  0  0  0
 11 12  1  0  0  0  0
 12 13  2  0  0  0  0
 13 14  1  0  0  0  0
 14 15  2  0  0  0  0
M  END
>  <DSSTox_RID>
20539

>  <DSSTox_CID>
539

>  <DSSTox_Generic_SID>
20539

>  <DSSTox_FileID>
564_CPDBAS_v5d

>  <STRUCTURE_Formula>
C14H11N

>  <STRUCTURE_MolecularWeight>
193.2476

>  <STRUCTURE_ChemicalType>
defined organic

>  <STRUCTURE_TestedForm_DefinedOrganic>
parent

>  <STRUCTURE_Shown>
tested chemical

>  <TestSubstance_ChemicalName>
Diphenylacetonitrile

>  <TestSubstance_CASRN>
86-29-3

>  <TestSubstance_Description>
single chemical compound

>  <STRUCTURE_ChemicalName_IUPAC>
diphenylacetonitrile

>  <STRUCTURE_SMILES>
N#CC(C1=CC=CC=C1)C2=CC=CC=C2

>  <STRUCTURE_Parent_SMILES>
N#CC(C1=CC=CC=C1)C2=CC=CC=C2

>  <STRUCTURE_InChI>
InChI=1/C14H11N/c15-11-14(12-7-3-1-4-8-12)13-9-5-2-6-10-13/h1-10,14H

>  <STRUCTURE_InChIKey>
NEBPTMCRLHKPOB-UHFFFAOYAI

>  <StudyType>
Carcinogenicity

>  <Endpoint>
TD50; Tumor Target Sites

>  <Species>
mouse

>  <ActivityScore_CPDBAS_Mouse>
0

>  <TD50_Mouse_Note>
no positive results

>  <TargetSites_Mouse_Male>
no positive results

>  <TargetSites_Mouse_Female>
no positive results

>  <ActivityOutcome_CPDBAS_Mouse>
inactive

>  <ActivityOutcome_CPDBAS_SingleCellCall>
inactive

>  <ActivityOutcome_CPDBAS_MultiCellCall>
inactive

>  <ActivityOutcome_CPDBAS_MultiCellCall_Details>
multisex inactive

>  <ChemicalPage_URL>
http://potency.berkeley.edu/chempages/DIPHENYLACETONITRILE.html

$$$$



 16 17  0  0  0  0  0  0  0  0999 V2000
    4.6029   -0.6628    0.0000 O   0  0  0  0  0  0  0  0  0  0  0  0
    4.6029   -1.9977    0.0000 C   0  0  0  0  0  0  0  0  0  0  0  0
    5.7537   -2.6605    0.0000 O   0  0  0  0  0  0  0  0  0  0  0  0
    6.9044   -1.9977    0.0000 C   0  0  0  0  0  0  0  0  0  0  0  0
    6.9044   -0.6628    0.0000 C   0  0  0  0  0  0  0  0  0  0  0  0
    8.0551    0.0000    0.0000 C   0  0  0  0  0  0  0  0  0  0  0  0
    9.2059   -0.6628    0.0000 C   0  0  0  0  0  0  0  0  0  0  0  0
    9.2059   -1.9977    0.0000 C   0  0  0  0  0  0  0  0  0  0  0  0
    8.0551   -2.6605    0.0000 C   0  0  0  0  0  0  0  0  0  0  0  0
    3.4522   -2.6605    0.0000 O   0  0  0  0  0  0  0  0  0  0  0  0
    2.3015   -1.9977    0.0000 C   0  0  0  0  0  0  0  0  0  0  0  0
    1.1507   -2.6605    0.0000 C   0  0  0  0  0  0  0  0  0  0  0  0
    0.0000   -1.9977    0.0000 C   0  0  0  0  0  0  0  0  0  0  0  0
    0.0000   -0.6628    0.0000 C   0  0  0  0  0  0  0  0  0  0  0  0
    1.1507    0.0000    0.0000 C   0  0  0  0  0  0  0  0  0  0  0  0
    2.3015   -0.6628    0.0000 C   0  0  0  0  0  0  0  0  0  0  0  0
  1  2  2  0  0  0  0
  2  3  1  0  0  0  0
  2 10  1  0  0  0  0
  3  4  1  0  0  0  0
  4  5  2  0  0  0  0
  4  9  1  0  0  0  0
  5  6  1  0  0  0  0
  6  7  2  0  0  0  0
  7  8  1  0  0  0  0
  8  9  2  0  0  0  0
 10 11  1  0  0  0  0
 11 12  2  0  0  0  0
 11 16  1  0  0  0  0
 12 13  1  0  0  0  0
 13 14  2  0  0  0  0
 14 15  1  0  0  0  0
 15 16  2  0  0  0  0
M  END
>  <DSSTox_RID>
20540

>  <DSSTox_CID>
540

>  <DSSTox_Generic_SID>
20540

>  <DSSTox_FileID>
565_CPDBAS_v5d

>  <STRUCTURE_Formula>
C13H10O3

>  <STRUCTURE_MolecularWeight>
214.2167

>  <STRUCTURE_ChemicalType>
defined organic

>  <STRUCTURE_TestedForm_DefinedOrganic>
parent

>  <STRUCTURE_Shown>
tested chemical

>  <TestSubstance_ChemicalName>
Diphenylcarbonate

>  <TestSubstance_CASRN>
102-09-0

>  <TestSubstance_Description>
single chemical compound

>  <STRUCTURE_ChemicalName_IUPAC>
diphenyl carbonate

>  <STRUCTURE_SMILES>
O=C(OC1=CC=CC=C1)OC2=CC=CC=C2

>  <STRUCTURE_Parent_SMILES>
O=C(OC1=CC=CC=C1)OC2=CC=CC=C2

>  <STRUCTURE_InChI>
InChI=1/C13H10O3/c14-13(15-11-7-3-1-4-8-11)16-12-9-5-2-6-10-12/h1-10H

>  <STRUCTURE_InChIKey>
ROORDVPLFPIABK-UHFFFAOYAY

>  <StudyType>
Carcinogenicity

>  <Endpoint>
TD50; Tumor Target Sites

>  <Species>
mouse

>  <ActivityScore_CPDBAS_Mouse>
0

>  <TD50_Mouse_Note>
no positive results

>  <TargetSites_Mouse_Male>
no positive results

>  <TargetSites_Mouse_Female>
no positive results

>  <ActivityOutcome_CPDBAS_Mouse>
inactive

>  <ActivityOutcome_CPDBAS_SingleCellCall>
inactive

>  <ActivityOutcome_CPDBAS_MultiCellCall>
inactive

>  <ActivityOutcome_CPDBAS_MultiCellCall_Details>
multisex inactive

>  <ChemicalPage_URL>
http://potency.berkeley.edu/chempages/DIPHENYLCARBONATE.html

$$$$



 19 21  0  0  0  0  0  0  0  0999 V2000
    3.2769   -5.7981    0.0000 O   0  0  0  0  0  0  0  0  0  0  0  0
    4.0538   -4.7247    0.0000 C   0  0  0  0  0  0  0  0  0  0  0  0
    3.6441   -3.4535    0.0000 C   0  0  0  0  0  0  0  0  0  0  0  0
    2.4294   -3.9973    0.0000 C   0  0  0  0  0  0  0  0  0  0  0  0
    2.2882   -5.3179    0.0000 C   0  0  0  0  0  0  0  0  0  0  0  0
    1.0735   -5.8617    0.0000 C   0  0  0  0  0  0  0  0  0  0  0  0
    0.0000   -5.0778    0.0000 C   0  0  0  0  0  0  0  0  0  0  0  0
    0.1412   -3.7571    0.0000 C   0  0  0  0  0  0  0  0  0  0  0  0
    1.3560   -3.2133    0.0000 C   0  0  0  0  0  0  0  0  0  0  0  0
    2.9803   -2.3023    0.0000 C   0  0  0  0  0  0  0  0  0  0  0  0
    1.6526   -2.3023    0.0000 C   0  0  0  0  0  0  0  0  0  0  0  0
    0.9817   -1.1512    0.0000 C   0  0  0  0  0  0  0  0  0  0  0  0
    1.6526    0.0000    0.0000 C   0  0  0  0  0  0  0  0  0  0  0  0
    2.9803    0.0000    0.0000 C   0  0  0  0  0  0  0  0  0  0  0  0
    3.6441   -1.1512    0.0000 C   0  0  0  0  0  0  0  0  0  0  0  0
    4.7247   -2.6766    0.0000 N   0  0  0  0  0  0  0  0  0  0  0  0
    5.7981   -3.4535    0.0000 C   0  0  0  0  0  0  0  0  0  0  0  0
    7.0623   -3.0438    0.0000 O   0  0  0  0  0  0  0  0  0  0  0  0
    5.3885   -4.7247    0.0000 N   0  0  0  0  0  0  0  0  0  0  0  0
  1  2  2  0  0  0  0
  2  3  1  0  0  0  0
  2 19  1  0  0  0  0
  3  4  1  0  0  0  0
  3 10  1  0  0  0  0
  3 16  1  0  0  0  0
  4  5  2  0  0  0  0
  4  9  1  0  0  0  0
  5  6  1  0  0  0  0
  6  7  2  0  0  0  0
  7  8  1  0  0  0  0
  8  9  2  0  0  0  0
 10 11  2  0  0  0  0
 10 15  1  0  0  0  0
 11 12  1  0  0  0  0
 12 13  2  0  0  0  0
 13 14  1  0  0  0  0
 14 15  2  0  0  0  0
 16 17  1  0  0  0  0
 17 18  2  0  0  0  0
 17 19  1  0  0  0  0
M  END
>  <DSSTox_RID>
20541

>  <DSSTox_CID>
541

>  <DSSTox_Generic_SID>
20541

>  <DSSTox_FileID>
566_CPDBAS_v5d

>  <STRUCTURE_Formula>
C15H12N2O2

>  <STRUCTURE_MolecularWeight>
252.268

>  <STRUCTURE_ChemicalType>
defined organic

>  <STRUCTURE_TestedForm_DefinedOrganic>
parent

>  <STRUCTURE_Shown>
tested chemical

>  <TestSubstance_ChemicalName>
5,5-Diphenylhydantoin

>  <TestSubstance_CASRN>
57-41-0

>  <TestSubstance_Description>
single chemical compound

>  <STRUCTURE_ChemicalName_IUPAC>
5,5-diphenylimidazolidine-2,4-dione

>  <STRUCTURE_SMILES>
O=C1C(C2=CC=CC=C2)(C3=CC=CC=C3)NC(=O)N1

>  <STRUCTURE_Parent_SMILES>
O=C1C(C2=CC=CC=C2)(C3=CC=CC=C3)NC(=O)N1

>  <STRUCTURE_InChI>
InChI=1/C15H12N2O2/c18-13-15(17-14(19)16-13,11-7-3-1-4-8-11)12-9-5-2-6-10-12/h1-10H,(H2,16,17,18,19)/f/h16-17H

>  <STRUCTURE_InChIKey>
CXOFVDLJLONNDW-XQMQJMAZCS

>  <StudyType>
Carcinogenicity

>  <Endpoint>
TD50; Tumor Target Sites

>  <Species>
rat; mouse

>  <ActivityOutcome_CPDBAS_Mutagenicity>
inactive

>  <ActivityScore_CPDBAS_Rat>
0

>  <TD50_Rat_Note>
no positive results

>  <TargetSites_Rat_Male>
no positive results

>  <TargetSites_Rat_Female>
no positive results

>  <ActivityOutcome_CPDBAS_Rat>
inactive

>  <TD50_Mouse_mg>
59.1

>  <TD50_Mouse_mmol>
0.234

>  <ActivityScore_CPDBAS_Mouse>
35

>  <TargetSites_Mouse_Male>
no positive results

>  <TargetSites_Mouse_Female>
liver

>  <ActivityOutcome_CPDBAS_Mouse>
active

>  <ActivityOutcome_CPDBAS_SingleCellCall>
active

>  <NTP_TechnicalReport>
TR 404

>  <ChemicalPage_URL>
http://potency.berkeley.edu/chempages/5,5-DIPHENYLHYDANTOIN.html

$$$$



 22 23  0  0  0  0  0  0  0  0999 V2000
    5.3209   -1.1452    0.0000 N   0  0  0  0  0  0  0  0  0  0  0  0
    5.9912   -2.3043    0.0000 N   0  0  0  0  0  0  0  0  0  0  0  0
    7.3179   -2.3043    0.0000 C   0  0  0  0  0  0  0  0  0  0  0  0
    7.9743   -1.1452    0.0000 C   0  0  0  0  0  0  0  0  0  0  0  0
    9.3150   -1.1452    0.0000 C   0  0  0  0  0  0  0  0  0  0  0  0
    9.9714   -2.3043    0.0000 C   0  0  0  0  0  0  0  0  0  0  0  0
    9.3150   -3.4495    0.0000 C   0  0  0  0  0  0  0  0  0  0  0  0
    7.9743   -3.4495    0.0000 C   0  0  0  0  0  0  0  0  0  0  0  0
   11.3121   -2.3043    0.0000 N   0  0  0  0  0  0  0  0  0  0  0  0
   11.9684   -3.4495    0.0000 C   0  0  0  0  0  0  0  0  0  0  0  0
   13.2952   -3.4495    0.0000 C   0  0  0  0  0  0  0  0  0  0  0  0
   13.9655   -2.3043    0.0000 C   0  0  0  0  0  0  0  0  0  0  0  0
   11.9684   -1.1452    0.0000 C   0  0  0  0  0  0  0  0  0  0  0  0
   13.2952   -1.1452    0.0000 C   0  0  0  0  0  0  0  0  0  0  0  0
   13.9655    0.0000    0.0000 C   0  0  0  0  0  0  0  0  0  0  0  0
    3.9941   -1.1452    0.0000 C   0  0  0  0  0  0  0  0  0  0  0  0
    3.3238   -2.3043    0.0000 C   0  0  0  0  0  0  0  0  0  0  0  0
    1.9971   -2.3043    0.0000 C   0  0  0  0  0  0  0  0  0  0  0  0
    1.3267   -1.1452    0.0000 N   0  3  0  0  0  0  0  0  0  0  0  0
    1.9971    0.0000    0.0000 C   0  0  0  0  0  0  0  0  0  0  0  0
    3.3238    0.0000    0.0000 C   0  0  0  0  0  0  0  0  0  0  0  0
    0.0000   -1.1452    0.0000 O   0  5  0  0  0  0  0  0  0  0  0  0
  1  2  2  0  0  0  0
  1 16  1  0  0  0  0
  2  3  1  0  0  0  0
  3  4  2  0  0  0  0
  3  8  1  0  0  0  0
  4  5  1  0  0  0  0
  5  6  2  0  0  0  0
  6  7  1  0  0  0  0
  6  9  1  0  0  0  0
  7  8  2  0  0  0  0
  9 10  1  0  0  0  0
  9 13  1  0  0  0  0
 10 11  1  0  0  0  0
 11 12  1  0  0  0  0
 13 14  1  0  0  0  0
 14 15  1  0  0  0  0
 16 17  2  0  0  0  0
 16 21  1  0  0  0  0
 17 18  1  0  0  0  0
 18 19  2  0  0  0  0
 19 20  1  0  0  0  0
 19 22  1  0  0  0  0
 20 21  2  0  0  0  0
M  END
>  <DSSTox_RID>
20542

>  <DSSTox_CID>
542

>  <DSSTox_Generic_SID>
20542

>  <DSSTox_FileID>
567_CPDBAS_v5d

>  <STRUCTURE_Formula>
C17H22N4O

>  <STRUCTURE_MolecularWeight>
298.387

>  <STRUCTURE_ChemicalType>
defined organic

>  <STRUCTURE_TestedForm_DefinedOrganic>
parent

>  <STRUCTURE_Shown>
tested chemical

>  <TestSubstance_ChemicalName>
N,N-Dipropyl-4-(4'-[pyridyl-1'-oxide]azo)aniline

>  <TestSubstance_CASRN>
NOCAS

>  <TestSubstance_Description>
single chemical compound

>  <STRUCTURE_ChemicalName_IUPAC>
4-[(E)-(1-oxidopyridin-4-yl)diazenyl]-N,N-dipropylaniline

>  <STRUCTURE_SMILES>
N(=NC1=CC=C(C=C1)N(CCC)CCC)C2=CC=[N+](C=C2)[O-]

>  <STRUCTURE_Parent_SMILES>
N(=NC1=CC=C(C=C1)N(CCC)CCC)C2=CC=[N+](C=C2)[O-]

>  <STRUCTURE_InChI>
InChI=1/C17H22N4O/c1-3-11-20(12-4-2)17-7-5-15(6-8-17)18-19-16-9-13-21(22)14-10-16/h5-10,13-14H,3-4,11-12H2,1-2H3/b19-18+

>  <STRUCTURE_InChIKey>
MDUDTPWNAUUTBJ-VHEBQXMUBC

>  <StudyType>
Carcinogenicity

>  <Endpoint>
TD50; Tumor Target Sites

>  <Species>
rat

>  <ActivityScore_CPDBAS_Rat>
0

>  <TD50_Rat_Note>
no positive results

>  <TargetSites_Rat_Male>
no positive results

>  <ActivityOutcome_CPDBAS_Rat>
inactive

>  <ActivityOutcome_CPDBAS_SingleCellCall>
inactive

>  <ChemicalPage_URL>
http://potency.berkeley.edu/chempages/N,N-DIPROPYL-4-(4'-[PYRIDYL-1'-OXIDE]AZO)ANILINE.html

$$$$



  8  7  0  0  0  0  0  0  0  0999 V2000
    5.7628   -1.9939    0.0000 N   0  0  0  0  0  0  0  0  0  0  0  0
    4.6103   -1.3312    0.0000 C   0  0  0  0  0  0  0  0  0  0  0  0
    4.6103    0.0000    0.0000 S   0  0  0  0  0  0  0  0  0  0  0  0
    3.4577   -1.9939    0.0000 N   0  0  0  0  0  0  0  0  0  0  0  0
    2.3051   -1.3312    0.0000 N   0  0  0  0  0  0  0  0  0  0  0  0
    1.1526   -1.9939    0.0000 C   0  0  0  0  0  0  0  0  0  0  0  0
    1.1526   -3.3252    0.0000 S   0  0  0  0  0  0  0  0  0  0  0  0
    0.0000   -1.3312    0.0000 N   0  0  0  0  0  0  0  0  0  0  0  0
  1  2  1  0  0  0  0
  2  3  2  0  0  0  0
  2  4  1  0  0  0  0
  4  5  1  0  0  0  0
  5  6  1  0  0  0  0
  6  7  2  0  0  0  0
  6  8  1  0  0  0  0
M  END
>  <DSSTox_RID>
20545

>  <DSSTox_CID>
545

>  <DSSTox_Generic_SID>
20545

>  <DSSTox_FileID>
571_CPDBAS_v5d

>  <STRUCTURE_Formula>
C2H6N4S2

>  <STRUCTURE_MolecularWeight>
150.2258

>  <STRUCTURE_ChemicalType>
defined organic

>  <STRUCTURE_TestedForm_DefinedOrganic>
parent

>  <STRUCTURE_Shown>
tested chemical

>  <TestSubstance_ChemicalName>
2,5-Dithiobiurea

>  <TestSubstance_CASRN>
142-46-1

>  <TestSubstance_Description>
single chemical compound

>  <STRUCTURE_ChemicalName_IUPAC>
hydrazine-1,2-dicarbothioamide

>  <STRUCTURE_SMILES>
NC(=S)NNC(=S)N

>  <STRUCTURE_Parent_SMILES>
NC(=S)NNC(=S)N

>  <STRUCTURE_InChI>
InChI=1/C2H6N4S2/c3-1(7)5-6-2(4)8/h(H3,3,5,7)(H3,4,6,8)/f/h5-6H,3-4H2

>  <STRUCTURE_InChIKey>
KCOYHFNCTWXETP-AZLRSVLECV

>  <StudyType>
Carcinogenicity

>  <Endpoint>
TD50; Tumor Target Sites

>  <Species>
rat; mouse

>  <ActivityOutcome_CPDBAS_Mutagenicity>
inactive

>  <ActivityScore_CPDBAS_Rat>
0

>  <TD50_Rat_Note>
no positive results

>  <TargetSites_Rat_Male>
no positive results

>  <TargetSites_Rat_Female>
no positive results

>  <ActivityOutcome_CPDBAS_Rat>
inactive

>  <ActivityScore_CPDBAS_Mouse>
0

>  <TD50_Mouse_Note>
no positive results

>  <TargetSites_Mouse_Male>
no positive results

>  <TargetSites_Mouse_Female>
no positive results

>  <ActivityOutcome_CPDBAS_Mouse>
inactive

>  <ActivityOutcome_CPDBAS_SingleCellCall>
inactive

>  <ActivityOutcome_CPDBAS_MultiCellCall>
inactive

>  <ActivityOutcome_CPDBAS_MultiCellCall_Details>
multisex inactive; multispecies inactive

>  <NTP_TechnicalReport>
TR 132

>  <ChemicalPage_URL>
http://potency.berkeley.edu/chempages/2,5-DITHIOBIUREA.html

$$$$



  6  5  0  0  0  0  0  0  0  0999 V2000
    3.3250   -1.1509    0.0000 N   0  0  0  0  0  0  0  0  0  0  0  0
    1.9943   -1.1509    0.0000 C   0  0  0  0  0  0  0  0  0  0  0  0
    1.3307    0.0000    0.0000 S   0  0  0  0  0  0  0  0  0  0  0  0
    1.3307   -2.3053    0.0000 C   0  0  0  0  0  0  0  0  0  0  0  0
    1.9943   -3.4563    0.0000 S   0  0  0  0  0  0  0  0  0  0  0  0
    0.0000   -2.3053    0.0000 N   0  0  0  0  0  0  0  0  0  0  0  0
  1  2  1  0  0  0  0
  2  3  2  0  0  0  0
  2  4  1  0  0  0  0
  4  5  2  0  0  0  0
  4  6  1  0  0  0  0
M  END
>  <DSSTox_RID>
20546

>  <DSSTox_CID>
546

>  <DSSTox_Generic_SID>
20546

>  <DSSTox_FileID>
572_CPDBAS_v5d

>  <STRUCTURE_Formula>
C2H4N2S2

>  <STRUCTURE_MolecularWeight>
120.187

>  <STRUCTURE_ChemicalType>
defined organic

>  <STRUCTURE_TestedForm_DefinedOrganic>
parent

>  <STRUCTURE_Shown>
tested chemical

>  <TestSubstance_ChemicalName>
Dithiooxamide

>  <TestSubstance_CASRN>
79-40-3

>  <TestSubstance_Description>
single chemical compound

>  <STRUCTURE_ChemicalName_IUPAC>
ethanebis(thioamide)

>  <STRUCTURE_SMILES>
NC(=S)C(=S)N

>  <STRUCTURE_Parent_SMILES>
NC(=S)C(=S)N

>  <STRUCTURE_InChI>
InChI=1/C2H4N2S2/c3-1(5)2(4)6/h(H2,3,5)(H2,4,6)/f/h3-4H2

>  <STRUCTURE_InChIKey>
OAEGRYMCJYIXQT-SBGUCSDWCP

>  <StudyType>
Carcinogenicity

>  <Endpoint>
TD50; Tumor Target Sites

>  <Species>
rat

>  <ActivityScore_CPDBAS_Rat>
0

>  <TD50_Rat_Note>
no positive results

>  <TargetSites_Rat_Female>
no positive results

>  <ActivityOutcome_CPDBAS_Rat>
inactive

>  <ActivityOutcome_CPDBAS_SingleCellCall>
inactive

>  <ChemicalPage_URL>
http://potency.berkeley.edu/chempages/DITHIOOXAMIDE.html

$$$$



 27 27  0  0  1  0  0  0  0  0999 V2000
   16.6218   -1.9850    0.0000 C   0  0  1  0  0  0  0  0  0  0  0  0
   17.8449   -1.4436    0.0000 O   0  0  0  0  0  0  0  0  0  0  0  0
   16.7621   -3.3083    0.0000 C   0  0  0  0  0  0  0  0  0  0  0  0
   18.7271   -2.4462    0.0000 C   0  0  0  0  0  0  0  0  0  0  0  0
   18.0654   -3.5890    0.0000 C   0  0  0  0  0  0  0  0  0  0  0  0
   15.7797   -4.2106    0.0000 O   0  0  0  0  0  0  0  0  0  0  0  0
   18.6068   -4.8121    0.0000 O   0  0  0  0  0  0  0  0  0  0  0  0
   20.0504   -2.3058    0.0000 O   0  0  0  0  0  0  0  0  0  0  0  0
   15.4789   -1.3233    0.0000 C   0  0  2  0  0  0  0  0  0  0  0  0
   14.3160   -1.9850    0.0000 C   0  0  0  0  0  0  0  0  0  0  0  0
   15.4789    0.0000    0.0000 O   0  0  0  0  0  0  0  0  0  0  0  0
   13.1731   -1.3233    0.0000 O   0  0  0  0  0  0  0  0  0  0  0  0
   14.5165   -3.7895    0.0000 C   0  0  0  0  0  0  0  0  0  0  0  0
   13.5140   -4.6918    0.0000 C   0  0  0  0  0  0  0  0  0  0  0  0
   12.2508   -4.2707    0.0000 C   0  0  0  0  0  0  0  0  0  0  0  0
   11.2683   -5.1730    0.0000 C   0  0  0  0  0  0  0  0  0  0  0  0
   13.7947   -5.9951    0.0000 O   0  0  0  0  0  0  0  0  0  0  0  0
   10.0052   -4.7519    0.0000 C   0  0  0  0  0  0  0  0  0  0  0  0
    9.0227   -5.6342    0.0000 C   0  0  0  0  0  0  0  0  0  0  0  0
    7.7395   -5.2332    0.0000 C   0  0  0  0  0  0  0  0  0  0  0  0
    6.7570   -6.1154    0.0000 C   0  0  0  0  0  0  0  0  0  0  0  0
    5.4938   -5.7144    0.0000 C   0  0  0  0  0  0  0  0  0  0  0  0
    4.5113   -6.5966    0.0000 C   0  0  0  0  0  0  0  0  0  0  0  0
    3.2482   -6.1956    0.0000 C   0  0  0  0  0  0  0  0  0  0  0  0
    2.2456   -7.0778    0.0000 C   0  0  0  0  0  0  0  0  0  0  0  0
    0.9825   -6.6768    0.0000 C   0  0  0  0  0  0  0  0  0  0  0  0
    0.0000   -7.5590    0.0000 C   0  0  0  0  0  0  0  0  0  0  0  0
  1  2  1  1  0  0  0
  1  3  1  0  0  0  0
  1  9  1  0  0  0  0
  2  4  1  0  0  0  0
  3  5  2  0  0  0  0
  3  6  1  0  0  0  0
  4  5  1  0  0  0  0
  4  8  2  0  0  0  0
  5  7  1  0  0  0  0
  6 13  1  0  0  0  0
  9 10  1  0  0  0  0
  9 11  1  6  0  0  0
 10 12  1  0  0  0  0
 13 14  1  0  0  0  0
 14 15  1  0  0  0  0
 14 17  2  0  0  0  0
 15 16  1  0  0  0  0
 16 18  1  0  0  0  0
 18 19  1  0  0  0  0
 19 20  1  0  0  0  0
 20 21  1  0  0  0  0
 21 22  1  0  0  0  0
 22 23  1  0  0  0  0
 23 24  1  0  0  0  0
 24 25  1  0  0  0  0
 25 26  1  0  0  0  0
 26 27  1  0  0  0  0
M  END
>  <DSSTox_RID>
20547

>  <DSSTox_CID>
547

>  <DSSTox_Generic_SID>
20547

>  <DSSTox_FileID>
573_CPDBAS_v5d

>  <STRUCTURE_Formula>
C20H34O7

>  <STRUCTURE_MolecularWeight>
386.4798

>  <STRUCTURE_ChemicalType>
defined organic

>  <STRUCTURE_TestedForm_DefinedOrganic>
parent

>  <STRUCTURE_Shown>
tested chemical

>  <TestSubstance_ChemicalName>
3-O-Dodecylcarbomethylascorbic acid

>  <TestSubstance_CASRN>
133794-57-7

>  <TestSubstance_Description>
single chemical compound

>  <ChemicalNote>
stereochem, tautomers

>  <STRUCTURE_ChemicalName_IUPAC>
(5R)-5-[(1S)-1,2-dihydroxyethyl]-3-hydroxy-4-[(2-oxododecyl)oxy]furan-2(5H)-one

>  <STRUCTURE_SMILES>
O\C1=C(/OCC(=O)CCCCCCCCCCCC)[C@H](OC1=O)[C@@H](O)CO

>  <STRUCTURE_Parent_SMILES>
O\C1=C(/OCC(=O)CCCCCCCCCCCC)[C@H](OC1=O)[C@@H](O)CO

>  <STRUCTURE_InChI>
InChI=1/C20H34O7/c1-2-3-4-5-6-7-8-9-10-11-12-15(22)14-26-19-17(24)20(25)27-18(19)16(23)13-21/h16,18,21,23-24H,2-14H2,1H3/t16-,18+/m0/s1

>  <STRUCTURE_InChIKey>
MUSWYBCUWOLKQJ-FUHWJXTLBZ

>  <StudyType>
Carcinogenicity

>  <Endpoint>
TD50; Tumor Target Sites

>  <Species>
rat

>  <ActivityScore_CPDBAS_Rat>
0

>  <TD50_Rat_Note>
no positive results

>  <TargetSites_Rat_Female>
no positive results

>  <ActivityOutcome_CPDBAS_Rat>
inactive

>  <ActivityOutcome_CPDBAS_SingleCellCall>
inactive

>  <Note_CPDBAS>
CASRN added v5b

>  <ChemicalPage_URL>
http://potency.berkeley.edu/chempages/3-O-DODECYLCARBOMETHYLASCORBIC%20ACID.html

$$$$



 14 14  0  0  0  0  0  0  0  0999 V2000
    0.0000   -2.6606    0.0000 O   0  0  0  0  0  0  0  0  0  0  0  0
    1.1541   -1.9972    0.0000 C   0  0  0  0  0  0  0  0  0  0  0  0
    1.1541   -0.6634    0.0000 C   0  0  0  0  0  0  0  0  0  0  0  0
    2.3012    0.0000    0.0000 C   0  0  0  0  0  0  0  0  0  0  0  0
    3.4553   -0.6634    0.0000 C   0  0  0  0  0  0  0  0  0  0  0  0
    3.4553   -1.9972    0.0000 C   0  0  0  0  0  0  0  0  0  0  0  0
    2.3012   -2.6606    0.0000 C   0  0  0  0  0  0  0  0  0  0  0  0
    4.6093   -2.6606    0.0000 C   0  0  0  0  0  0  0  0  0  0  0  0
    5.7565   -1.9972    0.0000 C   0  0  3  0  0  0  0  0  0  0  0  0
    5.7565   -0.6634    0.0000 C   0  0  0  0  0  0  0  0  0  0  0  0
    4.6093    0.0000    0.0000 O   0  0  0  0  0  0  0  0  0  0  0  0
    6.9106    0.0000    0.0000 O   0  0  0  0  0  0  0  0  0  0  0  0
    6.9106   -2.6606    0.0000 N   0  0  0  0  0  0  0  0  0  0  0  0
    0.0000    0.0000    0.0000 O   0  0  0  0  0  0  0  0  0  0  0  0
  1  2  1  0  0  0  0
  2  3  2  0  0  0  0
  2  7  1  0  0  0  0
  3  4  1  0  0  0  0
  3 14  1  0  0  0  0
  4  5  2  0  0  0  0
  5  6  1  0  0  0  0
  6  7  2  0  0  0  0
  6  8  1  0  0  0  0
  8  9  1  0  0  0  0
  9 10  1  0  0  0  0
  9 13  1  0  0  0  0
 10 11  2  0  0  0  0
 10 12  1  0  0  0  0
M  END
>  <DSSTox_RID>
20549

>  <DSSTox_CID>
549

>  <DSSTox_Generic_SID>
20549

>  <DSSTox_FileID>
575_CPDBAS_v5d

>  <STRUCTURE_Formula>
C9H11NO4

>  <STRUCTURE_MolecularWeight>
197.1902

>  <STRUCTURE_ChemicalType>
defined organic

>  <STRUCTURE_TestedForm_DefinedOrganic>
parent

>  <STRUCTURE_Shown>
tested chemical

>  <TestSubstance_ChemicalName>
dl-Dopa

>  <TestSubstance_CASRN>
63-84-3

>  <TestSubstance_Description>
single chemical compound

>  <ChemicalNote>
racemic mixture d- [5796-17-8] and  l- [59-92-7]

>  <STRUCTURE_ChemicalName_IUPAC>
3-hydroxytyrosine

>  <STRUCTURE_SMILES>
OC1=C(C=CC(=C1)CC(C(=O)O)N)O

>  <STRUCTURE_Parent_SMILES>
OC1=C(C=CC(=C1)CC(C(=O)O)N)O

>  <STRUCTURE_InChI>
InChI=1/C9H11NO4/c10-6(9(13)14)3-5-1-2-7(11)8(12)4-5/h1-2,4,6,11-12H,3,10H2,(H,13,14)/f/h13H

>  <STRUCTURE_InChIKey>
WTDRDQBEARUVNC-NDKGDYFDCQ

>  <StudyType>
Carcinogenicity

>  <Endpoint>
TD50; Tumor Target Sites

>  <Species>
rat

>  <ActivityScore_CPDBAS_Rat>
0

>  <TD50_Rat_Note>
no positive results

>  <TargetSites_Rat_Male>
no positive results

>  <ActivityOutcome_CPDBAS_Rat>
inactive

>  <ActivityOutcome_CPDBAS_SingleCellCall>
inactive

>  <ChemicalPage_URL>
http://potency.berkeley.edu/chempages/DL-DOPA.html

$$$$



 24 26  0  0  0  0  0  0  0  0999 V2000
    6.7528   -5.5266    0.0000 C   0  0  0  0  0  0  0  0  0  0  0  0
    5.5957   -6.1915    0.0000 C   0  0  0  0  0  0  0  0  0  0  0  0
    5.5957   -7.5214    0.0000 Cl  0  0  0  0  0  0  0  0  0  0  0  0
    4.4472   -5.5266    0.0000 C   0  0  0  0  0  0  0  0  0  0  0  0
    4.4472   -4.1968    0.0000 C   0  0  0  0  0  0  0  0  0  0  0  0
    5.5957   -3.5319    0.0000 C   0  0  0  0  0  0  0  0  0  0  0  0
    6.7528   -4.1968    0.0000 C   0  0  0  0  0  0  0  0  0  0  0  0
    5.8116   -2.1934    0.0000 N   0  0  0  0  0  0  0  0  0  0  0  0
    7.0637   -1.8221    0.0000 C   0  0  0  0  0  0  0  0  0  0  0  0
    7.3660   -0.5268    0.0000 C   0  0  0  0  0  0  0  0  0  0  0  0
    8.6353   -0.1295    0.0000 O   0  0  0  0  0  0  0  0  0  0  0  0
    4.8703   -1.2521    0.0000 C   0  0  0  0  0  0  0  0  0  0  0  0
    5.3798    0.0000    0.0000 O   0  0  0  0  0  0  0  0  0  0  0  0
    3.5664   -1.3385    0.0000 C   0  0  3  0  0  0  0  0  0  0  0  0
    2.9015   -0.1813    0.0000 O   0  0  0  0  0  0  0  0  0  0  0  0
    2.8151   -2.4352    0.0000 N   0  0  0  0  0  0  0  0  0  0  0  0
    3.1864   -3.6873    0.0000 C   0  0  0  0  0  0  0  0  0  0  0  0
    2.2452   -4.6285    0.0000 C   0  0  0  0  0  0  0  0  0  0  0  0
    2.5129   -5.8893    0.0000 C   0  0  0  0  0  0  0  0  0  0  0  0
    1.5716   -6.8306    0.0000 C   0  0  0  0  0  0  0  0  0  0  0  0
    0.2763   -6.4247    0.0000 C   0  0  0  0  0  0  0  0  0  0  0  0
    0.0000   -5.1467    0.0000 C   0  0  0  0  0  0  0  0  0  0  0  0
    0.9413   -4.2054    0.0000 C   0  0  0  0  0  0  0  0  0  0  0  0
    0.6649   -2.9274    0.0000 F   0  0  0  0  0  0  0  0  0  0  0  0
  1  2  2  0  0  0  0
  1  7  1  0  0  0  0
  2  3  1  0  0  0  0
  2  4  1  0  0  0  0
  4  5  2  0  0  0  0
  5  6  1  0  0  0  0
  5 17  1  0  0  0  0
  6  7  2  0  0  0  0
  6  8  1  0  0  0  0
  8  9  1  0  0  0  0
  8 12  1  0  0  0  0
  9 10  1  0  0  0  0
 10 11  1  0  0  0  0
 12 13  2  0  0  0  0
 12 14  1  0  0  0  0
 14 15  1  0  0  0  0
 14 16  1  0  0  0  0
 16 17  2  0  0  0  0
 17 18  1  0  0  0  0
 18 19  2  0  0  0  0
 18 23  1  0  0  0  0
 19 20  1  0  0  0  0
 20 21  2  0  0  0  0
 21 22  1  0  0  0  0
 22 23  2  0  0  0  0
 23 24  1  0  0  0  0
M  END
>  <DSSTox_RID>
20551

>  <DSSTox_CID>
551

>  <DSSTox_Generic_SID>
20551

>  <DSSTox_FileID>
577_CPDBAS_v5d

>  <STRUCTURE_Formula>
C17H14ClFN2O3

>  <STRUCTURE_MolecularWeight>
348.7560632

>  <STRUCTURE_ChemicalType>
defined organic

>  <STRUCTURE_TestedForm_DefinedOrganic>
parent

>  <STRUCTURE_Shown>
tested chemical

>  <TestSubstance_ChemicalName>
Doxefazepam

>  <TestSubstance_CASRN>
40762-15-0

>  <TestSubstance_Description>
single chemical compound

>  <ChemicalNote>
tautomers

>  <STRUCTURE_ChemicalName_IUPAC>
7-chloro-5-(2-fluorophenyl)-3-hydroxy-1-(2-hydroxyethyl)-1,3-dihydro-2H-1,4-benzodiazepin-2-one

>  <STRUCTURE_SMILES>
C1=C(Cl)C=C3C(=C1)N(CCO)C(=O)C(O)N=C3C2=CC=CC=C2F

>  <STRUCTURE_Parent_SMILES>
C1=C(Cl)C=C3C(=C1)N(CCO)C(=O)C(O)N=C3C2=CC=CC=C2F

>  <STRUCTURE_InChI>
InChI=1/C17H14ClFN2O3/c18-10-5-6-14-12(9-10)15(11-3-1-2-4-13(11)19)20-16(23)17(24)21(14)7-8-22/h1-6,9,16,22-23H,7-8H2

>  <STRUCTURE_InChIKey>
VOJLELRQLPENHL-UHFFFAOYAT

>  <StudyType>
Carcinogenicity

>  <Endpoint>
TD50; Tumor Target Sites

>  <Species>
rat

>  <ActivityScore_CPDBAS_Rat>
0

>  <TD50_Rat_Note>
no positive results

>  <TargetSites_Rat_Male>
no positive results

>  <TargetSites_Rat_Female>
no positive results

>  <ActivityOutcome_CPDBAS_Rat>
inactive

>  <ActivityOutcome_CPDBAS_SingleCellCall>
inactive

>  <ActivityOutcome_CPDBAS_MultiCellCall>
inactive

>  <ActivityOutcome_CPDBAS_MultiCellCall_Details>
multisex inactive

>  <ChemicalPage_URL>
http://potency.berkeley.edu/chempages/DOXEFAZEPAM.html

$$$$



 36 39  0  0  1  0  0  0  0  0999 V2000
    5.7928   -4.8942    0.0000 C   0  0  0  0  0  0  0  0  0  0  0  0
    6.9403   -4.1891    0.0000 C   0  0  1  0  0  0  0  0  0  0  0  0
    3.4978   -4.8803    0.0000 C   0  0  2  0  0  0  0  0  0  0  0  0
    6.9403   -2.8757    0.0000 C   0  0  1  0  0  0  0  0  0  0  0  0
    4.6315   -4.1891    0.0000 C   0  0  1  0  0  0  0  0  0  0  0  0
    5.7928   -6.1799    0.0000 C   0  0  0  0  0  0  0  0  0  0  0  0
    3.4978   -6.1937    0.0000 C   0  0  2  0  0  0  0  0  0  0  0  0
    4.6315   -6.8574    0.0000 C   0  0  0  0  0  0  0  0  0  0  0  0
    8.2122   -2.4609    0.0000 C   0  0  2  0  0  0  0  0  0  0  0  0
    2.3365   -4.1891    0.0000 C   0  0  0  0  0  0  0  0  0  0  0  0
    2.3365   -6.8574    0.0000 C   0  0  0  0  0  0  0  0  0  0  0  0
    8.2122   -4.6038    0.0000 C   0  0  0  0  0  0  0  0  0  0  0  0
    5.7790   -2.1844    0.0000 C   0  0  0  0  0  0  0  0  0  0  0  0
    4.6315   -2.8757    0.0000 C   0  0  0  0  0  0  0  0  0  0  0  0
    8.9865   -3.5393    0.0000 C   0  0  0  0  0  0  0  0  0  0  0  0
    8.6408   -1.1752    0.0000 C   0  0  1  0  0  0  0  0  0  0  0  0
    1.1890   -4.8942    0.0000 C   0  0  1  0  0  0  0  0  0  0  0  0
    1.1890   -6.1799    0.0000 C   0  0  2  0  0  0  0  0  0  0  0  0
    4.6315   -8.1846    0.0000 O   0  0  0  0  0  0  0  0  0  0  0  0
    6.9403   -5.5163    0.0000 O   0  0  0  0  0  0  0  0  0  0  0  0
    9.9957   -1.1752    0.0000 C   0  0  1  0  0  0  0  0  0  0  0  0
   12.6917   -3.4010    0.0000 C   0  0  0  0  0  0  0  0  0  0  0  0
   10.6870   -2.2950    0.0000 C   0  0  0  0  0  0  0  0  0  0  0  0
    3.4978   -3.5393    0.0000 C   0  0  0  0  0  0  0  0  0  0  0  0
    6.9403   -1.5346    0.0000 C   0  0  0  0  0  0  0  0  0  0  0  0
   11.9866   -2.2812    0.0000 C   0  0  0  0  0  0  0  0  0  0  0  0
    0.0000   -6.8159    0.0000 O   0  0  0  0  0  0  0  0  0  0  0  0
    0.0000   -4.2444    0.0000 O   0  0  0  0  0  0  0  0  0  0  0  0
   13.3829   -4.5624    0.0000 O   0  0  0  0  0  0  0  0  0  0  0  0
   10.6870    0.0000    0.0000 O   0  0  0  0  0  0  0  0  0  0  0  0
    7.5763   -0.4701    0.0000 C   0  0  0  0  0  0  0  0  0  0  0  0
   13.8253   -2.7374    0.0000 C   0  0  0  0  0  0  0  0  0  0  0  0
   11.5856   -4.1061    0.0000 C   0  0  0  0  0  0  0  0  0  0  0  0
    8.2122   -3.7881    0.0000 H   0  0  0  0  0  0  0  0  0  0  0  0
    4.6315   -5.5163    0.0000 H   0  0  0  0  0  0  0  0  0  0  0  0
    3.4978   -7.5210    0.0000 H   0  0  0  0  0  0  0  0  0  0  0  0
  1  2  1  0  0  0  0
  1  5  1  0  0  0  0
  1  6  2  0  0  0  0
  2  4  1  0  0  0  0
  2 12  1  0  0  0  0
  2 20  1  6  0  0  0
  3  5  1  0  0  0  0
  3 10  1  0  0  0  0
  3 24  1  1  0  0  0
  3  7  1  0  0  0  0
  4  9  1  0  0  0  0
  4 25  1  1  0  0  0
  4 13  1  0  0  0  0
  5 14  1  0  0  0  0
  5 35  1  6  0  0  0
  6  8  1  0  0  0  0
  7  8  1  0  0  0  0
  7 11  1  0  0  0  0
  7 36  1  1  0  0  0
  8 19  2  0  0  0  0
  9 16  1  0  0  0  0
  9 15  1  0  0  0  0
  9 34  1  6  0  0  0
 10 17  1  0  0  0  0
 11 18  1  0  0  0  0
 12 15  1  0  0  0  0
 13 14  1  0  0  0  0
 16 21  1  0  0  0  0
 16 31  1  6  0  0  0
 17 28  1  1  0  0  0
 17 18  1  0  0  0  0
 18 27  1  1  0  0  0
 21 23  1  0  0  0  0
 21 30  1  6  0  0  0
 22 26  1  0  0  0  0
 22 29  1  0  0  0  0
 22 32  1  0  0  0  0
 22 33  1  0  0  0  0
 23 26  1  0  0  0  0
M  END
>  <DSSTox_RID>
20553

>  <DSSTox_CID>
553

>  <DSSTox_Generic_SID>
20553

>  <DSSTox_FileID>
579_CPDBAS_v5d

>  <STRUCTURE_Formula>
C27H44O6

>  <STRUCTURE_MolecularWeight>
464.641

>  <STRUCTURE_ChemicalType>
defined organic

>  <STRUCTURE_TestedForm_DefinedOrganic>
parent

>  <STRUCTURE_Shown>
tested chemical

>  <TestSubstance_ChemicalName>
alpha-Ecdysone

>  <TestSubstance_CASRN>
3604-87-3

>  <TestSubstance_Description>
single chemical compound

>  <ChemicalNote>
stereochem

>  <STRUCTURE_ChemicalName_IUPAC>
(2beta,3beta,5beta,22R)-2,3,14,22,25-pentahydroxycholest-7-en-6-one

>  <STRUCTURE_SMILES>
CC(C)(O)CC[C@@H](O)[C@@H](C)[C@H]2CC[C@@]1(O)C/3=C/C(=O)[C@@H]4C[C@@H](O)[C@@H](O)C[C@]4(C)[C@H]\3CC[C@@]12C

>  <STRUCTURE_Parent_SMILES>
CC(C)(O)CC[C@@H](O)[C@@H](C)[C@H]2CC[C@@]1(O)C/3=C/C(=O)[C@@H]4C[C@@H](O)[C@@H](O)C[C@]4(C)[C@H]\3CC[C@@]12C

>  <STRUCTURE_InChI>
InChI=1/C27H44O6/c1-15(20(28)8-9-24(2,3)32)16-7-11-27(33)18-12-21(29)19-13-22(30)23(31)14-25(19,4)17(18)6-10-26(16,27)5/h12,15-17,19-20,22-23,28,30-33H,6-11,13-14H2,1-5H3/t15-,16+,17-,19-,20+,22+,23-,25+,26+,27+/m0/s1

>  <STRUCTURE_InChIKey>
UPEZCKBFRMILAV-JMZLNJERBR

>  <StudyType>
Carcinogenicity

>  <Endpoint>
TD50; Tumor Target Sites

>  <Species>
mouse

>  <TD50_Mouse_mg>
0.0358

>  <TD50_Mouse_mmol>
0.000077

>  <ActivityScore_CPDBAS_Mouse>
75

>  <TD50_Mouse_Note>
TD50 is harmonic mean of more than one positive test

>  <TargetSites_Mouse_Male>
lung

>  <TargetSites_Mouse_Female>
mammary gland

>  <ActivityOutcome_CPDBAS_Mouse>
active

>  <ActivityOutcome_CPDBAS_SingleCellCall>
active

>  <ActivityOutcome_CPDBAS_MultiCellCall>
active

>  <ActivityOutcome_CPDBAS_MultiCellCall_Details>
multisite active; multisex active

>  <ChemicalPage_URL>
http://potency.berkeley.edu/chempages/alpha-ECDYSONE.html

$$$$



 22 25  0  0  0  0  0  0  0  0999 V2000
    1.1543   -7.9780    0.0000 O   0  0  0  0  0  0  0  0  0  0  0  0
    2.2994   -7.3170    0.0000 C   0  0  0  0  0  0  0  0  0  0  0  0
    2.2994   -5.9858    0.0000 C   0  0  0  0  0  0  0  0  0  0  0  0
    3.4537   -5.3155    0.0000 C   0  0  0  0  0  0  0  0  0  0  0  0
    4.6080   -5.9858    0.0000 C   0  0  0  0  0  0  0  0  0  0  0  0
    5.7624   -5.3155    0.0000 C   0  0  0  0  0  0  0  0  0  0  0  0
    5.7624   -3.9936    0.0000 O   0  0  0  0  0  0  0  0  0  0  0  0
    4.6080   -3.3234    0.0000 C   0  0  0  0  0  0  0  0  0  0  0  0
    3.4537   -3.9936    0.0000 C   0  0  0  0  0  0  0  0  0  0  0  0
    2.2994   -3.3234    0.0000 C   0  0  0  0  0  0  0  0  0  0  0  0
    2.2994   -1.9922    0.0000 C   0  0  0  0  0  0  0  0  0  0  0  0
    3.4537   -1.3312    0.0000 C   0  0  0  0  0  0  0  0  0  0  0  0
    4.6080   -1.9922    0.0000 C   0  0  0  0  0  0  0  0  0  0  0  0
    5.7624   -1.3312    0.0000 O   0  0  0  0  0  0  0  0  0  0  0  0
    3.4537    0.0000    0.0000 O   0  0  0  0  0  0  0  0  0  0  0  0
    1.1543   -3.9936    0.0000 C   0  0  0  0  0  0  0  0  0  0  0  0
    0.0000   -3.3234    0.0000 O   0  0  0  0  0  0  0  0  0  0  0  0
    1.1543   -5.3155    0.0000 O   0  0  0  0  0  0  0  0  0  0  0  0
    6.9074   -5.9858    0.0000 O   0  0  0  0  0  0  0  0  0  0  0  0
    4.6080   -7.3170    0.0000 C   0  0  0  0  0  0  0  0  0  0  0  0
    3.4537   -7.9780    0.0000 C   0  0  0  0  0  0  0  0  0  0  0  0
    3.4537   -9.3092    0.0000 O   0  0  0  0  0  0  0  0  0  0  0  0
  1  2  1  0  0  0  0
  2  3  1  0  0  0  0
  2 21  2  0  0  0  0
  3  4  2  0  0  0  0
  3 18  1  0  0  0  0
  4  5  1  0  0  0  0
  4  9  1  0  0  0  0
  5  6  1  0  0  0  0
  5 20  2  0  0  0  0
  6  7  1  0  0  0  0
  6 19  2  0  0  0  0
  7  8  1  0  0  0  0
  8  9  1  0  0  0  0
  8 13  2  0  0  0  0
  9 10  2  0  0  0  0
 10 11  1  0  0  0  0
 10 16  1  0  0  0  0
 11 12  2  0  0  0  0
 12 13  1  0  0  0  0
 12 15  1  0  0  0  0
 13 14  1  0  0  0  0
 16 17  2  0  0  0  0
 16 18  1  0  0  0  0
 20 21  1  0  0  0  0
 21 22  1  0  0  0  0
M  END
>  <DSSTox_RID>
20557

>  <DSSTox_CID>
557

>  <DSSTox_Generic_SID>
20557

>  <DSSTox_FileID>
584_CPDBAS_v5d

>  <STRUCTURE_Formula>
C14H6O8

>  <STRUCTURE_MolecularWeight>
302.1926

>  <STRUCTURE_ChemicalType>
defined organic

>  <STRUCTURE_TestedForm_DefinedOrganic>
parent

>  <STRUCTURE_Shown>
tested chemical

>  <TestSubstance_ChemicalName>
Ellagic acid

>  <TestSubstance_CASRN>
476-66-4

>  <TestSubstance_Description>
single chemical compound

>  <ChemicalNote>
C.I. 55005

>  <STRUCTURE_ChemicalName_IUPAC>
2,3,7,8-tetrahydroxychromeno[5,4,3-cde]chromene-5,10-dione

>  <STRUCTURE_SMILES>
OC1C2=C3C(C(OC4C3=C(C=C(C=4O)O)C(=O)O2)=O)=CC=1O

>  <STRUCTURE_Parent_SMILES>
OC1C2=C3C(C(OC4C3=C(C=C(C=4O)O)C(=O)O2)=O)=CC=1O

>  <STRUCTURE_InChI>
InChI=1/C14H6O8/c15-5-1-3-7-8-4(14(20)22-11(7)9(5)17)2-6(16)10(18)12(8)21-13(3)19/h1-2,15-18H

>  <STRUCTURE_InChIKey>
AFSDNFLWKVMVRB-UHFFFAOYAQ

>  <StudyType>
Carcinogenicity

>  <Endpoint>
TD50; Tumor Target Sites

>  <Species>
rat

>  <ActivityOutcome_CPDBAS_Mutagenicity>
inactive

>  <ActivityScore_CPDBAS_Rat>
0

>  <TD50_Rat_Note>
no positive results

>  <TargetSites_Rat_Female>
no positive results

>  <ActivityOutcome_CPDBAS_Rat>
inactive

>  <ActivityOutcome_CPDBAS_SingleCellCall>
inactive

>  <ChemicalPage_URL>
http://potency.berkeley.edu/chempages/ELLAGIC%20ACID.html

$$$$



 20 22  0  0  0  0  0  0  0  0999 V2000
    4.6071    0.0000    0.0000 O   0  0  0  0  0  0  0  0  0  0  0  0
    4.6071   -1.3268    0.0000 C   0  0  0  0  0  0  0  0  0  0  0  0
    5.7588   -1.9903    0.0000 C   0  0  0  0  0  0  0  0  0  0  0  0
    6.9106   -1.3268    0.0000 C   0  0  0  0  0  0  0  0  0  0  0  0
    6.9106    0.0000    0.0000 O   0  0  0  0  0  0  0  0  0  0  0  0
    8.0624   -1.9903    0.0000 C   0  0  0  0  0  0  0  0  0  0  0  0
    8.0624   -3.3171    0.0000 C   0  0  0  0  0  0  0  0  0  0  0  0
    9.2141   -3.9897    0.0000 C   0  0  0  0  0  0  0  0  0  0  0  0
    6.9106   -3.9897    0.0000 C   0  0  0  0  0  0  0  0  0  0  0  0
    5.7588   -3.3171    0.0000 C   0  0  0  0  0  0  0  0  0  0  0  0
    4.6071   -3.9897    0.0000 C   0  0  0  0  0  0  0  0  0  0  0  0
    4.6071   -5.3166    0.0000 O   0  0  0  0  0  0  0  0  0  0  0  0
    3.4553   -3.3171    0.0000 C   0  0  0  0  0  0  0  0  0  0  0  0
    2.3035   -3.9897    0.0000 C   0  0  0  0  0  0  0  0  0  0  0  0
    1.1518   -3.3171    0.0000 C   0  0  0  0  0  0  0  0  0  0  0  0
    0.0000   -3.9897    0.0000 O   0  0  0  0  0  0  0  0  0  0  0  0
    1.1518   -1.9903    0.0000 C   0  0  0  0  0  0  0  0  0  0  0  0
    2.3035   -1.3268    0.0000 C   0  0  0  0  0  0  0  0  0  0  0  0
    2.3035    0.0000    0.0000 O   0  0  0  0  0  0  0  0  0  0  0  0
    3.4553   -1.9903    0.0000 C   0  0  0  0  0  0  0  0  0  0  0  0
  1  2  2  0  0  0  0
  2  3  1  0  0  0  0
  2 20  1  0  0  0  0
  3  4  2  0  0  0  0
  3 10  1  0  0  0  0
  4  5  1  0  0  0  0
  4  6  1  0  0  0  0
  6  7  2  0  0  0  0
  7  8  1  0  0  0  0
  7  9  1  0  0  0  0
  9 10  2  0  0  0  0
 10 11  1  0  0  0  0
 11 12  2  0  0  0  0
 11 13  1  0  0  0  0
 13 14  2  0  0  0  0
 13 20  1  0  0  0  0
 14 15  1  0  0  0  0
 15 16  1  0  0  0  0
 15 17  2  0  0  0  0
 17 18  1  0  0  0  0
 18 19  1  0  0  0  0
 18 20  2  0  0  0  0
M  END
>  <DSSTox_RID>
40795

>  <DSSTox_CID>
5231

>  <DSSTox_Generic_SID>
25231

>  <DSSTox_FileID>
587_CPDBAS_v5d

>  <STRUCTURE_Formula>
C15H10O5

>  <STRUCTURE_MolecularWeight>
270.2369

>  <STRUCTURE_ChemicalType>
defined organic

>  <STRUCTURE_TestedForm_DefinedOrganic>
parent

>  <STRUCTURE_Shown>
tested chemical

>  <TestSubstance_ChemicalName>
Emodin

>  <TestSubstance_CASRN>
518-82-1

>  <TestSubstance_Description>
single chemical compound

>  <STRUCTURE_ChemicalName_IUPAC>
1,3,8-trihydroxy-6-methylanthra-9,10-quinone

>  <STRUCTURE_SMILES>
O=C1c2c(O)cc(C)cc2C(=O)c3cc(O)cc(O)c13

>  <STRUCTURE_Parent_SMILES>
O=C1c2c(O)cc(C)cc2C(=O)c3cc(O)cc(O)c13

>  <STRUCTURE_InChI>
InChI=1/C15H10O5/c1-6-2-8-12(10(17)3-6)15(20)13-9(14(8)19)4-7(16)5-11(13)18/h2-5,16-18H,1H3

>  <STRUCTURE_InChIKey>
RHMXXJGYXNZAPX-UHFFFAOYAD

>  <StudyType>
Carcinogenicity

>  <Endpoint>
TD50; Tumor Target Sites

>  <Species>
rat; mouse

>  <ActivityOutcome_CPDBAS_Mutagenicity>
active

>  <ActivityScore_CPDBAS_Rat>
0

>  <TD50_Rat_Note>
no positive results

>  <TargetSites_Rat_Male>
no positive results

>  <TargetSites_Rat_Female>
no positive results

>  <ActivityOutcome_CPDBAS_Rat>
inactive

>  <ActivityScore_CPDBAS_Mouse>
0

>  <TD50_Mouse_Note>
no positive results

>  <TargetSites_Mouse_Male>
no positive results

>  <TargetSites_Mouse_Female>
no positive results

>  <ActivityOutcome_CPDBAS_Mouse>
inactive

>  <ActivityOutcome_CPDBAS_SingleCellCall>
inactive

>  <ActivityOutcome_CPDBAS_MultiCellCall>
inactive

>  <ActivityOutcome_CPDBAS_MultiCellCall_Details>
multisex inactive; multispecies inactive

>  <Note_CPDBAS>
Rat added v5a; Mouse added v5a; Mutagenicity_SAL_CPDB added v5a; chemical added v5a

>  <ChemicalPage_URL>
http://potency.berkeley.edu/chempages/EMODIN.html

$$$$



 21 25  0  0  0  0  0  0  0  0999 V2000
    1.4023    2.7211    0.0000 C   0  0  2  0  0  0  0  0  0  0  0  0
    0.0000    2.7211    0.0000 O   0  0  0  0  0  0  0  0  0  0  0  0
    0.6844    1.5191    0.0000 C   0  0  2  0  0  0  0  0  0  0  0  0
    2.5709    2.4039    0.0000 C   0  0  2  0  0  0  0  0  0  0  0  0
    3.9064    2.6543    0.0000 C   0  0  1  0  0  0  0  0  0  0  0  0
    2.0533    1.2854    0.0000 C   0  0  2  0  0  0  0  0  0  0  0  0
    2.4039    0.0000    0.0000 C   0  0  0  0  0  0  0  0  0  0  0  0
    3.7728    1.5191    0.0000 C   0  0  1  0  0  0  0  0  0  0  0  0
    5.5424    3.4556    0.0000 C   0  0  2  0  0  0  0  0  0  0  0  0
    5.0249    2.1702    0.0000 C   0  0  2  0  0  0  0  0  0  0  0  0
    6.5106    1.4524    0.0000 C   0  0  0  0  0  0  0  0  0  0  0  0
    7.2284    2.6543    0.0000 C   0  0  0  0  0  0  0  0  0  0  0  0
    8.4805    2.9715    0.0000 Cl  0  0  0  0  0  0  0  0  0  0  0  0
    7.0281    0.2337    0.0000 Cl  0  0  0  0  0  0  0  0  0  0  0  0
    4.5407    0.8013    0.0000 Cl  0  0  0  0  0  0  0  0  0  0  0  0
    5.0249    4.8579    0.0000 C   0  0  0  0  0  0  0  0  0  0  0  0
    5.8596    5.7427    0.0000 Cl  0  0  0  0  0  0  0  0  0  0  0  0
    4.0566    5.6592    0.0000 Cl  0  0  0  0  0  0  0  0  0  0  0  0
    6.4605    4.4239    0.0000 Cl  0  0  0  0  0  0  0  0  0  0  0  0
    3.7728    0.1002    0.0000 H   0  0  0  0  0  0  0  0  0  0  0  0
    3.8897    3.9231    0.0000 H   0  0  0  0  0  0  0  0  0  0  0  0
  1  2  1  1  0  0  0
  3  1  1  0  0  0  0
  4  1  1  0  0  0  0
  3  2  1  1  0  0  0
  6  3  1  0  0  0  0
  5  4  1  0  0  0  0
  4  7  1  6  0  0  0
  9  5  1  0  0  0  0
  8  5  1  0  0  0  0
  5 21  1  1  0  0  0
  6  7  1  1  0  0  0
  8  6  1  0  0  0  0
 10  8  1  0  0  0  0
  8 20  1  1  0  0  0
 12  9  1  0  0  0  0
  9 16  1  1  0  0  0
 19  9  1  0  0  0  0
 11 10  1  0  0  0  0
 10 16  1  1  0  0  0
 15 10  1  0  0  0  0
 12 11  2  0  0  0  0
 14 11  1  0  0  0  0
 13 12  1  0  0  0  0
 17 16  1  0  0  0  0
 18 16  1  0  0  0  0
M  END
>  <DSSTox_RID>
20561

>  <DSSTox_CID>
561

>  <DSSTox_Generic_SID>
20561

>  <DSSTox_FileID>
590_CPDBAS_v5d

>  <STRUCTURE_Formula>
C12H8Cl6O

>  <STRUCTURE_MolecularWeight>
380.9093

>  <STRUCTURE_ChemicalType>
defined organic

>  <STRUCTURE_TestedForm_DefinedOrganic>
parent

>  <STRUCTURE_Shown>
tested chemical

>  <TestSubstance_ChemicalName>
Endrin

>  <TestSubstance_CASRN>
72-20-8

>  <TestSubstance_Description>
single chemical compound

>  <ChemicalNote>
stereochem

>  <STRUCTURE_ChemicalName_IUPAC>
3,4,5,6,9,9-hexachloro-1a,2,2a,3,6,6a,7,7a-octahydro-2,7:3,6-dimethanonaphtho[2,3-b]oxirene

>  <STRUCTURE_SMILES>
Cl\C2=C(/Cl)C3(Cl)C1C4CC(C1C2(Cl)C3(Cl)Cl)C5OC45

>  <STRUCTURE_Parent_SMILES>
Cl\C2=C(/Cl)C3(Cl)C1C4CC(C1C2(Cl)C3(Cl)Cl)C5OC45

>  <STRUCTURE_InChI>
InChI=1/C12H8Cl6O/c13-8-9(14)11(16)5-3-1-2(6-7(3)19-6)4(5)10(8,15)12(11,17)18/h2-7H,1H2

>  <STRUCTURE_InChIKey>
DFBKLUNHFCTMDC-UHFFFAOYAM

>  <StudyType>
Carcinogenicity

>  <Endpoint>
TD50; Tumor Target Sites

>  <Species>
rat; mouse

>  <ActivityOutcome_CPDBAS_Mutagenicity>
inactive

>  <ActivityScore_CPDBAS_Rat>
0

>  <TD50_Rat_Note>
no positive results

>  <TargetSites_Rat_Male>
no positive results

>  <TargetSites_Rat_Female>
no positive results

>  <ActivityOutcome_CPDBAS_Rat>
inactive

>  <ActivityScore_CPDBAS_Mouse>
0

>  <TD50_Mouse_Note>
no positive results

>  <TargetSites_Mouse_Male>
no positive results

>  <TargetSites_Mouse_Female>
no positive results

>  <ActivityOutcome_CPDBAS_Mouse>
inactive

>  <ActivityOutcome_CPDBAS_SingleCellCall>
inactive

>  <ActivityOutcome_CPDBAS_MultiCellCall>
inactive

>  <ActivityOutcome_CPDBAS_MultiCellCall_Details>
multisex inactive; multispecies inactive

>  <Note_CPDBAS>
stereochem isomer; same 2D structure of dieldr[60-57-1]

>  <NTP_TechnicalReport>
TR 12

>  <ChemicalPage_URL>
http://potency.berkeley.edu/chempages/ENDRIN.html

$$$$



 10  9  0  0  0  0  0  0  0  0999 V2000
    2.7910   -0.1799    0.0000 F   0  0  0  0  0  0  0  0  0  0  0  0
    3.4561   -1.3301    0.0000 C   0  0  0  0  0  0  0  0  0  0  0  0
    4.1211   -2.4857    0.0000 C   0  0  3  0  0  0  0  0  0  0  0  0
    3.4561   -3.6359    0.0000 F   0  0  0  0  0  0  0  0  0  0  0  0
    5.4512   -2.4857    0.0000 Cl  0  0  0  0  0  0  0  0  0  0  0  0
    2.3059   -1.9951    0.0000 O   0  0  0  0  0  0  0  0  0  0  0  0
    1.1502   -1.3301    0.0000 C   0  0  0  0  0  0  0  0  0  0  0  0
    1.1502    0.0000    0.0000 F   0  0  0  0  0  0  0  0  0  0  0  0
    0.0000   -1.9951    0.0000 F   0  0  0  0  0  0  0  0  0  0  0  0
    4.6063   -0.6650    0.0000 F   0  0  0  0  0  0  0  0  0  0  0  0
  1  2  1  0  0  0  0
  2  3  1  0  0  0  0
  2  6  1  0  0  0  0
  2 10  1  0  0  0  0
  3  4  1  0  0  0  0
  3  5  1  0  0  0  0
  6  7  1  0  0  0  0
  7  8  1  0  0  0  0
  7  9  1  0  0  0  0
M  END
>  <DSSTox_RID>
20562

>  <DSSTox_CID>
562

>  <DSSTox_Generic_SID>
20562

>  <DSSTox_FileID>
591_CPDBAS_v5d

>  <STRUCTURE_Formula>
C3H2ClF5O

>  <STRUCTURE_MolecularWeight>
184.4932

>  <STRUCTURE_ChemicalType>
defined organic

>  <STRUCTURE_TestedForm_DefinedOrganic>
parent

>  <STRUCTURE_Shown>
tested chemical

>  <TestSubstance_ChemicalName>
Enflurane

>  <TestSubstance_CASRN>
13838-16-9

>  <TestSubstance_Description>
single chemical compound

>  <STRUCTURE_ChemicalName_IUPAC>
2-chloro-1,1,2-trifluoroethyl difluoromethyl ether

>  <STRUCTURE_SMILES>
FC(C(F)Cl)(OC(F)F)F

>  <STRUCTURE_Parent_SMILES>
FC(C(F)Cl)(OC(F)F)F

>  <STRUCTURE_InChI>
InChI=1/C3H2ClF5O/c4-1(5)3(8,9)10-2(6)7/h1-2H

>  <STRUCTURE_InChIKey>
JPGQOUSTVILISH-UHFFFAOYAZ

>  <StudyType>
Carcinogenicity

>  <Endpoint>
TD50; Tumor Target Sites

>  <Species>
mouse

>  <ActivityOutcome_CPDBAS_Mutagenicity>
inactive

>  <ActivityScore_CPDBAS_Mouse>
0

>  <TD50_Mouse_Note>
no positive results

>  <TargetSites_Mouse_Male>
no positive results

>  <TargetSites_Mouse_Female>
no positive results

>  <ActivityOutcome_CPDBAS_Mouse>
inactive

>  <ActivityOutcome_CPDBAS_SingleCellCall>
inactive

>  <ActivityOutcome_CPDBAS_MultiCellCall>
inactive

>  <ActivityOutcome_CPDBAS_MultiCellCall_Details>
multisex inactive

>  <ChemicalPage_URL>
http://potency.berkeley.edu/chempages/ENFLURANE.html

$$$$



  5  5  0  0  0  0  0  0  0  0999 V2000
    0.0000   -1.1519    0.0000 Cl  0  0  0  0  0  0  0  0  0  0  0  0
    1.1519   -1.8168    0.0000 C   0  0  0  0  0  0  0  0  0  0  0  0
    2.3037   -1.1519    0.0000 C   0  0  3  0  0  0  0  0  0  0  0  0
    2.9687    0.0000    0.0000 C   0  0  0  0  0  0  0  0  0  0  0  0
    3.6336   -1.1519    0.0000 O   0  0  0  0  0  0  0  0  0  0  0  0
  1  2  1  0  0  0  0
  2  3  1  0  0  0  0
  3  4  1  0  0  0  0
  3  5  1  0  0  0  0
  4  5  1  0  0  0  0
M  END
>  <DSSTox_RID>
20566

>  <DSSTox_CID>
566

>  <DSSTox_Generic_SID>
20566

>  <DSSTox_FileID>
595_CPDBAS_v5d

>  <STRUCTURE_Formula>
C3H5ClO

>  <STRUCTURE_MolecularWeight>
92.5242

>  <STRUCTURE_ChemicalType>
defined organic

>  <STRUCTURE_TestedForm_DefinedOrganic>
parent

>  <STRUCTURE_Shown>
tested chemical

>  <TestSubstance_ChemicalName>
Epichlorohydrin

>  <TestSubstance_CASRN>
106-89-8

>  <TestSubstance_Description>
single chemical compound

>  <STRUCTURE_ChemicalName_IUPAC>
2-(chloromethyl)oxirane

>  <STRUCTURE_SMILES>
ClCC1CO1

>  <STRUCTURE_Parent_SMILES>
ClCC1CO1

>  <STRUCTURE_InChI>
InChI=1/C3H5ClO/c4-1-3-2-5-3/h3H,1-2H2

>  <STRUCTURE_InChIKey>
BRLQWZUYTZBJKN-UHFFFAOYAY

>  <StudyType>
Carcinogenicity

>  <Endpoint>
TD50; Tumor Target Sites

>  <Species>
rat; mouse

>  <ActivityOutcome_CPDBAS_Mutagenicity>
active

>  <TD50_Rat_mg>
2.96

>  <TD50_Rat_mmol>
0.032

>  <ActivityScore_CPDBAS_Rat>
41

>  <TD50_Rat_Note>
TD50 is harmonic mean of more than one positive test

>  <TargetSites_Rat_Male>
stomach

>  <TargetSites_Rat_Female>
stomach

>  <ActivityOutcome_CPDBAS_Rat>
active

>  <ActivityScore_CPDBAS_Mouse>
0

>  <TD50_Mouse_Note>
no positive results

>  <TargetSites_Mouse_Female>
no positive results

>  <ActivityOutcome_CPDBAS_Mouse>
inactive

>  <ActivityOutcome_CPDBAS_SingleCellCall>
active

>  <ActivityOutcome_CPDBAS_MultiCellCall>
active

>  <ActivityOutcome_CPDBAS_MultiCellCall_Details>
multisex active

>  <ChemicalPage_URL>
http://potency.berkeley.edu/chempages/EPICHLOROHYDRIN.html

$$$$



  5  5  0  0  0  0  0  0  0  0999 V2000
    0.0000   -1.1519    0.0000 C   0  0  0  0  0  0  0  0  0  0  0  0
    1.1519   -1.8168    0.0000 C   0  0  0  0  0  0  0  0  0  0  0  0
    2.3037   -1.1519    0.0000 C   0  0  3  0  0  0  0  0  0  0  0  0
    2.9687    0.0000    0.0000 C   0  0  0  0  0  0  0  0  0  0  0  0
    3.6336   -1.1519    0.0000 O   0  0  0  0  0  0  0  0  0  0  0  0
  1  2  1  0  0  0  0
  2  3  1  0  0  0  0
  3  4  1  0  0  0  0
  3  5  1  0  0  0  0
  4  5  1  0  0  0  0
M  END
>  <DSSTox_RID>
20569

>  <DSSTox_CID>
569

>  <DSSTox_Generic_SID>
20569

>  <DSSTox_FileID>
598_CPDBAS_v5d

>  <STRUCTURE_Formula>
C4H8O

>  <STRUCTURE_MolecularWeight>
72.1057

>  <STRUCTURE_ChemicalType>
defined organic

>  <STRUCTURE_TestedForm_DefinedOrganic>
parent

>  <STRUCTURE_Shown>
tested chemical

>  <TestSubstance_ChemicalName>
1,2-Epoxybutane

>  <TestSubstance_CASRN>
106-88-7

>  <TestSubstance_Description>
single chemical compound

>  <STRUCTURE_ChemicalName_IUPAC>
2-ethyloxirane

>  <STRUCTURE_SMILES>
CCC1CO1

>  <STRUCTURE_Parent_SMILES>
CCC1CO1

>  <STRUCTURE_InChI>
InChI=1/C4H8O/c1-2-4-3-5-4/h4H,2-3H2,1H3

>  <STRUCTURE_InChIKey>
RBACIKXCRWGCBB-UHFFFAOYAB

>  <StudyType>
Carcinogenicity

>  <Endpoint>
TD50; Tumor Target Sites

>  <Species>
rat; mouse

>  <ActivityOutcome_CPDBAS_Mutagenicity>
active

>  <TD50_Rat_mg>
220

>  <TD50_Rat_mmol>
3.05

>  <ActivityScore_CPDBAS_Rat>
21

>  <TargetSites_Rat_Male>
lung; nasal cavity

>  <TargetSites_Rat_Female>
no positive results

>  <ActivityOutcome_CPDBAS_Rat>
active

>  <ActivityScore_CPDBAS_Mouse>
0

>  <TD50_Mouse_Note>
no positive results

>  <TargetSites_Mouse_Male>
no positive results

>  <TargetSites_Mouse_Female>
no positive results

>  <ActivityOutcome_CPDBAS_Mouse>
inactive

>  <ActivityOutcome_CPDBAS_SingleCellCall>
active

>  <ActivityOutcome_CPDBAS_MultiCellCall>
active

>  <ActivityOutcome_CPDBAS_MultiCellCall_Details>
multisite active

>  <NTP_TechnicalReport>
TR 329

>  <ChemicalPage_URL>
http://potency.berkeley.edu/chempages/1,2-EPOXYBUTANE.html

$$$$



 21 24  0  0  0  0  0  0  0  0999 V2000
    6.7457   -5.4442    0.0000 C   0  0  0  0  0  0  0  0  0  0  0  0
    5.5929   -6.1061    0.0000 C   0  0  0  0  0  0  0  0  0  0  0  0
    5.5929   -7.4374    0.0000 Cl  0  0  0  0  0  0  0  0  0  0  0  0
    4.4401   -5.4442    0.0000 C   0  0  0  0  0  0  0  0  0  0  0  0
    4.4401   -4.1129    0.0000 C   0  0  0  0  0  0  0  0  0  0  0  0
    5.5929   -3.4435    0.0000 C   0  0  0  0  0  0  0  0  0  0  0  0
    6.7457   -4.1129    0.0000 C   0  0  0  0  0  0  0  0  0  0  0  0
    5.8086   -2.1122    0.0000 N   0  0  0  0  0  0  0  0  0  0  0  0
    4.8715   -1.1751    0.0000 C   0  0  0  0  0  0  0  0  0  0  0  0
    3.5625   -1.2569    0.0000 C   0  0  0  0  0  0  0  0  0  0  0  0
    2.8113   -2.3576    0.0000 N   0  0  0  0  0  0  0  0  0  0  0  0
    3.1906   -3.6071    0.0000 C   0  0  0  0  0  0  0  0  0  0  0  0
    2.2461   -4.5517    0.0000 C   0  0  0  0  0  0  0  0  0  0  0  0
    2.5064   -5.8086    0.0000 C   0  0  0  0  0  0  0  0  0  0  0  0
    1.5693   -6.7531    0.0000 C   0  0  0  0  0  0  0  0  0  0  0  0
    0.2752   -6.3366    0.0000 C   0  0  0  0  0  0  0  0  0  0  0  0
    0.0000   -5.0574    0.0000 C   0  0  0  0  0  0  0  0  0  0  0  0
    0.9371   -4.1203    0.0000 C   0  0  0  0  0  0  0  0  0  0  0  0
    5.5483    0.0000    0.0000 N   0  0  0  0  0  0  0  0  0  0  0  0
    6.8424   -0.2529    0.0000 N   0  0  0  0  0  0  0  0  0  0  0  0
    6.9986   -1.5693    0.0000 C   0  0  0  0  0  0  0  0  0  0  0  0
  1  2  2  0  0  0  0
  1  7  1  0  0  0  0
  2  3  1  0  0  0  0
  2  4  1  0  0  0  0
  4  5  2  0  0  0  0
  5  6  1  0  0  0  0
  5 12  1  0  0  0  0
  6  7  2  0  0  0  0
  6  8  1  0  0  0  0
  8  9  1  0  0  0  0
  8 21  1  0  0  0  0
  9 10  1  0  0  0  0
  9 19  2  0  0  0  0
 10 11  1  0  0  0  0
 11 12  2  0  0  0  0
 12 13  1  0  0  0  0
 13 14  2  0  0  0  0
 13 18  1  0  0  0  0
 14 15  1  0  0  0  0
 15 16  2  0  0  0  0
 16 17  1  0  0  0  0
 17 18  2  0  0  0  0
 19 20  1  0  0  0  0
 20 21  2  0  0  0  0
M  END
>  <DSSTox_RID>
20572

>  <DSSTox_CID>
572

>  <DSSTox_Generic_SID>
20572

>  <DSSTox_FileID>
601_CPDBAS_v5d

>  <STRUCTURE_Formula>
C16H11ClN4

>  <STRUCTURE_MolecularWeight>
294.73834

>  <STRUCTURE_ChemicalType>
defined organic

>  <STRUCTURE_TestedForm_DefinedOrganic>
parent

>  <STRUCTURE_Shown>
tested chemical

>  <TestSubstance_ChemicalName>
Estazolam

>  <TestSubstance_CASRN>
29975-16-4

>  <TestSubstance_Description>
single chemical compound

>  <ChemicalNote>
tautomers

>  <STRUCTURE_ChemicalName_IUPAC>
8-chloro-6-phenyl-4H-[1,2,4]triazolo[4,3-a][1,4]benzodiazepine

>  <STRUCTURE_SMILES>
C1=C(Cl)C=C3C(=C1)N4C(CN=C3C2=CC=CC=C2)=NN=C4

>  <STRUCTURE_Parent_SMILES>
C1=C(Cl)C=C3C(=C1)N4C(CN=C3C2=CC=CC=C2)=NN=C4

>  <STRUCTURE_InChI>
InChI=1/C16H11ClN4/c17-12-6-7-14-13(8-12)16(11-4-2-1-3-5-11)18-9-15-20-19-10-21(14)15/h1-8,10H,9H2

>  <STRUCTURE_InChIKey>
CDCHDCWJMGXXRH-UHFFFAOYAH

>  <StudyType>
Carcinogenicity

>  <Endpoint>
TD50; Tumor Target Sites

>  <Species>
rat; mouse

>  <ActivityScore_CPDBAS_Rat>
0

>  <TD50_Rat_Note>
no positive results

>  <TargetSites_Rat_Male>
no positive results

>  <TargetSites_Rat_Female>
no positive results

>  <ActivityOutcome_CPDBAS_Rat>
inactive

>  <ActivityScore_CPDBAS_Mouse>
0

>  <TD50_Mouse_Note>
no positive results

>  <TargetSites_Mouse_Male>
no positive results

>  <TargetSites_Mouse_Female>
no positive results

>  <ActivityOutcome_CPDBAS_Mouse>
inactive

>  <ActivityOutcome_CPDBAS_SingleCellCall>
inactive

>  <ActivityOutcome_CPDBAS_MultiCellCall>
inactive

>  <ActivityOutcome_CPDBAS_MultiCellCall_Details>
multisex inactive; multispecies inactive

>  <ChemicalPage_URL>
http://potency.berkeley.edu/chempages/ESTAZOLAM.html

$$$$



 23 26  0  0  1  0  0  0  0  0999 V2000
    6.9343   -1.7134    0.0000 C   0  0  2  0  0  0  0  0  0  0  0  0
    6.9343   -3.0321    0.0000 C   0  0  2  0  0  0  0  0  0  0  0  0
    5.7681   -3.6780    0.0000 C   0  0  1  0  0  0  0  0  0  0  0  0
    4.6289   -3.0321    0.0000 C   0  0  1  0  0  0  0  0  0  0  0  0
    3.4806   -3.6780    0.0000 C   0  0  0  0  0  0  0  0  0  0  0  0
    3.4806   -5.0146    0.0000 C   0  0  0  0  0  0  0  0  0  0  0  0
    5.7681   -1.0227    0.0000 C   0  0  0  0  0  0  0  0  0  0  0  0
    4.6289   -1.7134    0.0000 C   0  0  0  0  0  0  0  0  0  0  0  0
    5.7681   -5.0146    0.0000 C   0  0  0  0  0  0  0  0  0  0  0  0
    8.1992   -3.4178    0.0000 C   0  0  0  0  0  0  0  0  0  0  0  0
    2.3593   -3.0321    0.0000 C   0  0  0  0  0  0  0  0  0  0  0  0
    8.1992   -1.2828    0.0000 C   0  0  2  0  0  0  0  0  0  0  0  0
    4.6289   -5.6874    0.0000 C   0  0  0  0  0  0  0  0  0  0  0  0
    2.3593   -5.6874    0.0000 C   0  0  0  0  0  0  0  0  0  0  0  0
    8.9706   -2.3683    0.0000 C   0  0  0  0  0  0  0  0  0  0  0  0
    1.1931   -5.0146    0.0000 C   0  0  0  0  0  0  0  0  0  0  0  0
    1.1931   -3.6780    0.0000 C   0  0  0  0  0  0  0  0  0  0  0  0
    6.9343   -0.3588    0.0000 C   0  0  0  0  0  0  0  0  0  0  0  0
    8.5401    0.0000    0.0000 O   0  0  0  0  0  0  0  0  0  0  0  0
    0.0000   -5.7143    0.0000 O   0  0  0  0  0  0  0  0  0  0  0  0
    5.7681   -2.3413    0.0000 H   0  0  0  0  0  0  0  0  0  0  0  0
    4.6289   -4.3597    0.0000 H   0  0  0  0  0  0  0  0  0  0  0  0
    6.9343   -4.3597    0.0000 H   0  0  0  0  0  0  0  0  0  0  0  0
  1  2  1  0  0  0  0
  1  7  1  0  0  0  0
  1 12  1  0  0  0  0
  1 18  1  1  0  0  0
  2  3  1  0  0  0  0
  2 10  1  0  0  0  0
  2 23  1  6  0  0  0
  3  9  1  0  0  0  0
  3  4  1  0  0  0  0
  3 21  1  1  0  0  0
  4  8  1  0  0  0  0
  4  5  1  0  0  0  0
  4 22  1  6  0  0  0
  5  6  1  0  0  0  0
  5 11  2  0  0  0  0
  6 14  2  0  0  0  0
  6 13  1  0  0  0  0
  7  8  1  0  0  0  0
  9 13  1  0  0  0  0
 10 15  1  0  0  0  0
 11 17  1  0  0  0  0
 12 15  1  0  0  0  0
 12 19  1  1  0  0  0
 14 16  1  0  0  0  0
 16 17  2  0  0  0  0
 16 20  1  0  0  0  0
M  END
>  <DSSTox_RID>
20573

>  <DSSTox_CID>
573

>  <DSSTox_Generic_SID>
20573

>  <DSSTox_FileID>
602_CPDBAS_v5d

>  <STRUCTURE_Formula>
C18H24O2

>  <STRUCTURE_MolecularWeight>
272.382

>  <STRUCTURE_ChemicalType>
defined organic

>  <STRUCTURE_TestedForm_DefinedOrganic>
parent

>  <STRUCTURE_Shown>
tested chemical

>  <TestSubstance_ChemicalName>
Estradiol

>  <TestSubstance_CASRN>
50-28-2

>  <TestSubstance_Description>
single chemical compound

>  <ChemicalNote>
stereochem

>  <STRUCTURE_ChemicalName_IUPAC>
(17beta)-estra-1(10),2,4-triene-3,17-diol

>  <STRUCTURE_SMILES>
Oc3cc4CC[C@@H]1[C@H](CC[C@]2(C)[C@@H](O)CC[C@@H]12)c4cc3

>  <STRUCTURE_Parent_SMILES>
Oc3cc4CC[C@@H]1[C@H](CC[C@]2(C)[C@@H](O)CC[C@@H]12)c4cc3

>  <STRUCTURE_InChI>
InChI=1/C18H24O2/c1-18-9-8-14-13-5-3-12(19)10-11(13)2-4-15(14)16(18)6-7-17(18)20/h3,5,10,14-17,19-20H,2,4,6-9H2,1H3/t14-,15-,16+,17+,18+/m1/s1

>  <STRUCTURE_InChIKey>
VOXZDWNPVJITMN-ZBRFXRBCBJ

>  <StudyType>
Carcinogenicity

>  <Endpoint>
TD50; Tumor Target Sites

>  <Species>
mouse

>  <ActivityOutcome_CPDBAS_Mutagenicity>
inactive

>  <ActivityScore_CPDBAS_Mouse>
0

>  <TD50_Mouse_Note>
no positive results

>  <TargetSites_Mouse_Female>
no positive results

>  <ActivityOutcome_CPDBAS_Mouse>
inactive

>  <ActivityOutcome_CPDBAS_SingleCellCall>
inactive

>  <Note_CPDBAS>
TD50_Mouse modified v3a; TargetSites_Mouse modified v3a

>  <ChemicalPage_URL>
http://potency.berkeley.edu/chempages/ESTRADIOL.html

$$$$



 55 60  0  0  1  0  0  0  0  0999 V2000
    6.9476  -14.0864    0.0000 C   0  0  0  0  0  0  0  0  0  0  0  0
    5.8003  -14.7451    0.0000 C   0  0  0  0  0  0  0  0  0  0  0  0
    6.9476  -12.7479    0.0000 C   0  0  0  0  0  0  0  0  0  0  0  0
    4.6317  -14.0864    0.0000 C   0  0  0  0  0  0  0  0  0  0  0  0
    5.8003  -12.0680    0.0000 C   0  0  0  0  0  0  0  0  0  0  0  0
    4.6317  -12.7479    0.0000 C   0  0  0  0  0  0  0  0  0  0  0  0
    3.4844  -12.0680    0.0000 N   0  0  0  0  0  0  0  0  0  0  0  0
    3.4844  -10.7295    0.0000 C   0  0  0  0  0  0  0  0  0  0  0  0
    2.3159  -12.7479    0.0000 C   0  0  0  0  0  0  0  0  0  0  0  0
    1.1686  -12.0680    0.0000 C   0  0  0  0  0  0  0  0  0  0  0  0
    2.3159  -10.0709    0.0000 C   0  0  0  0  0  0  0  0  0  0  0  0
    0.0000  -12.7479    0.0000 Cl  0  0  0  0  0  0  0  0  0  0  0  0
    2.3159   -8.7323    0.0000 Cl  0  0  0  0  0  0  0  0  0  0  0  0
    8.0949  -14.7451    0.0000 C   0  0  0  0  0  0  0  0  0  0  0  0
   17.3584  -10.7295    0.0000 C   0  0  2  0  0  0  0  0  0  0  0  0
   17.3584  -12.0680    0.0000 C   0  0  2  0  0  0  0  0  0  0  0  0
   16.2111  -12.7479    0.0000 C   0  0  1  0  0  0  0  0  0  0  0  0
   15.0425  -12.0680    0.0000 C   0  0  1  0  0  0  0  0  0  0  0  0
   13.8952  -12.7479    0.0000 C   0  0  0  0  0  0  0  0  0  0  0  0
    9.2635  -14.0864    0.0000 C   0  0  0  0  0  0  0  0  0  0  0  0
   13.8952  -14.0864    0.0000 C   0  0  0  0  0  0  0  0  0  0  0  0
   16.2111  -10.0709    0.0000 C   0  0  0  0  0  0  0  0  0  0  0  0
   15.0425  -10.7295    0.0000 C   0  0  0  0  0  0  0  0  0  0  0  0
   16.2111  -14.0864    0.0000 C   0  0  0  0  0  0  0  0  0  0  0  0
   18.6332  -12.4930    0.0000 C   0  0  0  0  0  0  0  0  0  0  0  0
   10.4108  -14.7451    0.0000 O   0  0  0  0  0  0  0  0  0  0  0  0
   12.7267  -12.0680    0.0000 C   0  0  0  0  0  0  0  0  0  0  0  0
   18.6332  -10.3258    0.0000 C   0  0  2  0  0  0  0  0  0  0  0  0
   12.7267  -14.7451    0.0000 C   0  0  0  0  0  0  0  0  0  0  0  0
   15.0425  -14.7451    0.0000 C   0  0  0  0  0  0  0  0  0  0  0  0
   11.5794  -14.0864    0.0000 C   0  0  0  0  0  0  0  0  0  0  0  0
    9.2635  -12.7479    0.0000 O   0  0  0  0  0  0  0  0  0  0  0  0
   19.4193  -11.4094    0.0000 C   0  0  0  0  0  0  0  0  0  0  0  0
   11.5794  -12.7479    0.0000 C   0  0  0  0  0  0  0  0  0  0  0  0
   17.5921   -9.4122    0.0000 C   0  0  0  0  0  0  0  0  0  0  0  0
   19.0369   -9.0723    0.0000 O   0  0  0  0  0  0  0  0  0  0  0  0
   16.2323  -11.6431    0.0000 H   0  0  0  0  0  0  0  0  0  0  0  0
   17.3797  -13.3003    0.0000 H   0  0  0  0  0  0  0  0  0  0  0  0
   15.0425  -13.3216    0.0000 H   0  0  0  0  0  0  0  0  0  0  0  0
   20.3542   -8.7748    0.0000 C   0  0  0  0  0  0  0  0  0  0  0  0
   21.2465   -9.7734    0.0000 O   0  0  0  0  0  0  0  0  0  0  0  0
   20.7579   -7.5000    0.0000 C   0  0  0  0  0  0  0  0  0  0  0  0
   19.8655   -6.5227    0.0000 C   0  0  0  0  0  0  0  0  0  0  0  0
   18.5482   -6.7989    0.0000 C   0  0  0  0  0  0  0  0  0  0  0  0
   20.2904   -5.2479    0.0000 C   0  0  0  0  0  0  0  0  0  0  0  0
   17.6771   -5.8003    0.0000 C   0  0  0  0  0  0  0  0  0  0  0  0
   19.3768   -4.2493    0.0000 C   0  0  0  0  0  0  0  0  0  0  0  0
   18.0808   -4.5255    0.0000 C   0  0  0  0  0  0  0  0  0  0  0  0
   17.1884   -3.5482    0.0000 N   0  0  0  0  0  0  0  0  0  0  0  0
   17.5921   -2.2734    0.0000 C   0  0  0  0  0  0  0  0  0  0  0  0
   15.8924   -3.8244    0.0000 C   0  0  0  0  0  0  0  0  0  0  0  0
   14.9788   -2.8258    0.0000 C   0  0  0  0  0  0  0  0  0  0  0  0
   16.6998   -1.2748    0.0000 C   0  0  0  0  0  0  0  0  0  0  0  0
   13.6828   -3.1020    0.0000 Cl  0  0  0  0  0  0  0  0  0  0  0  0
   17.1035    0.0000    0.0000 Cl  0  0  0  0  0  0  0  0  0  0  0  0
  1  2  1  0  0  0  0
  1  3  2  0  0  0  0
  1 14  1  0  0  0  0
  2  4  2  0  0  0  0
  3  5  1  0  0  0  0
  4  6  1  0  0  0  0
  5  6  2  0  0  0  0
  6  7  1  0  0  0  0
  7  8  1  0  0  0  0
  7  9  1  0  0  0  0
  8 11  1  0  0  0  0
  9 10  1  0  0  0  0
 10 12  1  0  0  0  0
 11 13  1  0  0  0  0
 14 20  1  0  0  0  0
 15 16  1  0  0  0  0
 15 22  1  0  0  0  0
 15 28  1  0  0  0  0
 15 35  1  1  0  0  0
 16 17  1  0  0  0  0
 16 25  1  0  0  0  0
 16 38  1  6  0  0  0
 17 24  1  0  0  0  0
 17 18  1  0  0  0  0
 17 37  1  1  0  0  0
 18 23  1  0  0  0  0
 18 19  1  0  0  0  0
 18 39  1  6  0  0  0
 19 21  1  0  0  0  0
 19 27  2  0  0  0  0
 20 26  1  0  0  0  0
 20 32  2  0  0  0  0
 21 29  2  0  0  0  0
 21 30  1  0  0  0  0
 22 23  1  0  0  0  0
 24 30  1  0  0  0  0
 25 33  1  0  0  0  0
 26 31  1  0  0  0  0
 27 34  1  0  0  0  0
 28 33  1  0  0  0  0
 28 36  1  1  0  0  0
 29 31  1  0  0  0  0
 31 34  2  0  0  0  0
 36 40  1  0  0  0  0
 40 41  2  0  0  0  0
 40 42  1  0  0  0  0
 42 43  1  0  0  0  0
 43 44  1  0  0  0  0
 43 45  2  0  0  0  0
 44 46  2  0  0  0  0
 45 47  1  0  0  0  0
 46 48  1  0  0  0  0
 47 48  2  0  0  0  0
 48 49  1  0  0  0  0
 49 50  1  0  0  0  0
 49 51  1  0  0  0  0
 50 53  1  0  0  0  0
 51 52  1  0  0  0  0
 52 54  1  0  0  0  0
 53 55  1  0  0  0  0
M  END
>  <DSSTox_RID>
20574

>  <DSSTox_CID>
574

>  <DSSTox_Generic_SID>
20574

>  <DSSTox_FileID>
603_CPDBAS_v5d

>  <STRUCTURE_Formula>
C42H50Cl4N2O4

>  <STRUCTURE_MolecularWeight>
788.6694

>  <STRUCTURE_ChemicalType>
defined organic

>  <STRUCTURE_TestedForm_DefinedOrganic>
parent

>  <STRUCTURE_Shown>
tested chemical

>  <TestSubstance_ChemicalName>
Estradiol mustard

>  <TestSubstance_CASRN>
22966-79-6

>  <TestSubstance_Description>
single chemical compound

>  <ChemicalNote>
parent [50-28-2], stereochem

>  <STRUCTURE_ChemicalName_IUPAC>
(17beta)-estra-1(10),2,4-triene-3,17-diyl bis({4-[bis(2-chloroethyl)amino]phenyl}acetate)

>  <STRUCTURE_SMILES>
ClCCN(CCCl)C1=CC=C(CC(OC3=CC=C(C4=C3)[C@]2([H])[C@](CC4)([H])[C@@](CC[C@@H]5OC(CC6=CC=C(N(CCCl)CCCl)C=C6)=O)([H])[C@]5(C)CC2)=O)C=C1

>  <STRUCTURE_Parent_SMILES>
ClCCN(CCCl)C1=CC=C(CC(OC3=CC=C(C4=C3)[C@]2([H])[C@](CC4)([H])[C@@](CC[C@@H]5OC(CC6=CC=C(N(CCCl)CCCl)C=C6)=O)([H])[C@]5(C)CC2)=O)C=C1

>  <STRUCTURE_InChI>
InChI=1/C42H50Cl4N2O4/c1-42-17-16-36-35-13-11-34(51-40(49)26-29-2-7-32(8-3-29)47(22-18-43)23-19-44)28-31(35)6-12-37(36)38(42)14-15-39(42)52-41(50)27-30-4-9-33(10-5-30)48(24-20-45)25-21-46/h2-5,7-11,13,28,36-39H,6,12,14-27H2,1H3/t36-,37-,38+,39+,42+/m1/s1

>  <STRUCTURE_InChIKey>
LRSFXIJGHRPOQQ-VZRQQIPSBM

>  <StudyType>
Carcinogenicity

>  <Endpoint>
TD50; Tumor Target Sites

>  <Species>
rat; mouse

>  <ActivityScore_CPDBAS_Rat>
0

>  <TD50_Rat_Note>
no positive results

>  <TargetSites_Rat_Male>
no positive results

>  <TargetSites_Rat_Female>
no positive results

>  <ActivityOutcome_CPDBAS_Rat>
inactive

>  <TD50_Mouse_mg>
1.45

>  <TD50_Mouse_mmol>
0.00184

>  <ActivityScore_CPDBAS_Mouse>
59

>  <TD50_Mouse_Note>
TD50 is harmonic mean of more than one positive test

>  <TargetSites_Mouse_Male>
hematopoietic system; lung; myocardium; stomach

>  <TargetSites_Mouse_Female>
hematopoietic system; lung; myocardium; stomach

>  <ActivityOutcome_CPDBAS_Mouse>
active

>  <ActivityOutcome_CPDBAS_SingleCellCall>
active

>  <ActivityOutcome_CPDBAS_MultiCellCall>
active

>  <ActivityOutcome_CPDBAS_MultiCellCall_Details>
multisite active; multisex active

>  <NTP_TechnicalReport>
TR 59

>  <ChemicalPage_URL>
http://potency.berkeley.edu/chempages/ESTRADIOL%20MUSTARD.html

$$$$



 11 11  0  0  0  0  0  0  0  0999 V2000
    0.0000    0.0000    0.0000 C   0  0  0  0  0  0  0  0  0  0  0  0
    1.3316    0.0000    0.0000 C   0  0  0  0  0  0  0  0  0  0  0  0
    1.9934   -1.1561    0.0000 C   0  0  0  0  0  0  0  0  0  0  0  0
    3.3249   -1.1561    0.0000 C   0  0  0  0  0  0  0  0  0  0  0  0
    3.9867    0.0000    0.0000 C   0  0  0  0  0  0  0  0  0  0  0  0
    5.3183    0.0000    0.0000 C   0  0  0  0  0  0  0  0  0  0  0  0
    5.9801   -1.1561    0.0000 C   0  0  0  0  0  0  0  0  0  0  0  0
    5.3183   -2.3043    0.0000 C   0  0  0  0  0  0  0  0  0  0  0  0
    3.9867   -2.3043    0.0000 C   0  0  0  0  0  0  0  0  0  0  0  0
    7.3116   -1.1561    0.0000 O   0  0  0  0  0  0  0  0  0  0  0  0
    7.9734   -2.3043    0.0000 C   0  0  0  0  0  0  0  0  0  0  0  0
  1  2  2  0  0  0  0
  2  3  1  0  0  0  0
  3  4  1  0  0  0  0
  4  5  2  0  0  0  0
  4  9  1  0  0  0  0
  5  6  1  0  0  0  0
  6  7  2  0  0  0  0
  7  8  1  0  0  0  0
  7 10  1  0  0  0  0
  8  9  2  0  0  0  0
 10 11  1  0  0  0  0
M  END
>  <DSSTox_RID>
20575

>  <DSSTox_CID>
575

>  <DSSTox_Generic_SID>
20575

>  <DSSTox_FileID>
604_CPDBAS_v5d

>  <STRUCTURE_Formula>
C10H12O

>  <STRUCTURE_MolecularWeight>
148.2017

>  <STRUCTURE_ChemicalType>
defined organic

>  <STRUCTURE_TestedForm_DefinedOrganic>
parent

>  <STRUCTURE_Shown>
tested chemical

>  <TestSubstance_ChemicalName>
Estragole

>  <TestSubstance_CASRN>
140-67-0

>  <TestSubstance_Description>
single chemical compound

>  <STRUCTURE_ChemicalName_IUPAC>
1-allyl-4-methoxybenzene

>  <STRUCTURE_SMILES>
C=CCC1=CC=C(C=C1)OC

>  <STRUCTURE_Parent_SMILES>
C=CCC1=CC=C(C=C1)OC

>  <STRUCTURE_InChI>
InChI=1/C10H12O/c1-3-4-9-5-7-10(11-2)8-6-9/h3,5-8H,1,4H2,2H3

>  <STRUCTURE_InChIKey>
ZFMSMUAANRJZFM-UHFFFAOYAS

>  <StudyType>
Carcinogenicity

>  <Endpoint>
TD50; Tumor Target Sites

>  <Species>
mouse

>  <ActivityOutcome_CPDBAS_Mutagenicity>
inactive

>  <TD50_Mouse_mg>
51.8

>  <TD50_Mouse_mmol>
0.35

>  <ActivityScore_CPDBAS_Mouse>
33

>  <TargetSites_Mouse_Female>
liver

>  <ActivityOutcome_CPDBAS_Mouse>
active

>  <ActivityOutcome_CPDBAS_SingleCellCall>
active

>  <ChemicalPage_URL>
http://potency.berkeley.edu/chempages/ESTRAGOLE.html

$$$$



 25 28  0  0  1  0  0  0  0  0999 V2000
    6.9859   -1.7358    0.0000 C   0  0  1  0  0  0  0  0  0  0  0  0
    6.9859   -3.0776    0.0000 C   0  0  2  0  0  0  0  0  0  0  0  0
    5.8145   -3.7485    0.0000 C   0  0  1  0  0  0  0  0  0  0  0  0
    4.6644   -3.0883    0.0000 C   0  0  1  0  0  0  0  0  0  0  0  0
    3.5036   -3.7698    0.0000 C   0  0  0  0  0  0  0  0  0  0  0  0
    8.2425   -1.3099    0.0000 C   0  0  2  0  0  0  0  0  0  0  0  0
    3.5036   -5.1116    0.0000 C   0  0  0  0  0  0  0  0  0  0  0  0
    9.5736   -1.3737    0.0000 C   0  0  0  0  0  0  0  0  0  0  0  0
    5.8145   -1.0756    0.0000 C   0  0  0  0  0  0  0  0  0  0  0  0
    4.6644   -1.7358    0.0000 C   0  0  0  0  0  0  0  0  0  0  0  0
    8.2425   -3.4929    0.0000 C   0  0  0  0  0  0  0  0  0  0  0  0
    5.8145   -5.1116    0.0000 C   0  0  0  0  0  0  0  0  0  0  0  0
   10.6492   -1.3737    0.0000 C   0  0  0  0  0  0  0  0  0  0  0  0
    2.3428   -3.0989    0.0000 C   0  0  0  0  0  0  0  0  0  0  0  0
    4.6644   -5.7719    0.0000 C   0  0  0  0  0  0  0  0  0  0  0  0
    9.0305   -2.3961    0.0000 C   0  0  0  0  0  0  0  0  0  0  0  0
    2.3428   -5.7719    0.0000 C   0  0  0  0  0  0  0  0  0  0  0  0
    1.1927   -5.1010    0.0000 C   0  0  0  0  0  0  0  0  0  0  0  0
    8.4342    0.0000    0.0000 O   0  0  0  0  0  0  0  0  0  0  0  0
    1.1927   -3.7698    0.0000 C   0  0  0  0  0  0  0  0  0  0  0  0
    6.9859   -0.3940    0.0000 C   0  0  0  0  0  0  0  0  0  0  0  0
    0.0000   -5.7612    0.0000 O   0  0  0  0  0  0  0  0  0  0  0  0
    6.9859   -4.4194    0.0000 H   0  0  0  0  0  0  0  0  0  0  0  0
    4.6644   -4.4301    0.0000 H   0  0  0  0  0  0  0  0  0  0  0  0
    5.8145   -2.3961    0.0000 H   0  0  0  0  0  0  0  0  0  0  0  0
  1  2  1  0  0  0  0
  1  6  1  0  0  0  0
  1  9  1  0  0  0  0
  1 21  1  1  0  0  0
  2  3  1  0  0  0  0
  2 11  1  0  0  0  0
  2 23  1  6  0  0  0
  3 12  1  0  0  0  0
  3 25  1  1  0  0  0
  3  4  1  0  0  0  0
  4 10  1  0  0  0  0
  4  5  1  0  0  0  0
  4 24  1  6  0  0  0
  5  7  1  0  0  0  0
  5 14  2  0  0  0  0
  6  8  1  6  0  0  0
  6 16  1  0  0  0  0
  6 19  1  1  0  0  0
  7 17  2  0  0  0  0
  7 15  1  0  0  0  0
  8 13  3  0  0  0  0
  9 10  1  0  0  0  0
 11 16  1  0  0  0  0
 12 15  1  0  0  0  0
 14 20  1  0  0  0  0
 17 18  1  0  0  0  0
 18 20  2  0  0  0  0
 18 22  1  0  0  0  0
M  END
>  <DSSTox_RID>
20576

>  <DSSTox_CID>
576

>  <DSSTox_Generic_SID>
20576

>  <DSSTox_FileID>
605_CPDBAS_v5d

>  <STRUCTURE_Formula>
C20H24O2

>  <STRUCTURE_MolecularWeight>
296.4034

>  <STRUCTURE_ChemicalType>
defined organic

>  <STRUCTURE_TestedForm_DefinedOrganic>
parent

>  <STRUCTURE_Shown>
tested chemical

>  <TestSubstance_ChemicalName>
Ethinyl estradiol

>  <TestSubstance_CASRN>
57-63-6

>  <TestSubstance_Description>
single chemical compound

>  <ChemicalNote>
stereochem

>  <STRUCTURE_ChemicalName_IUPAC>
(17beta)-17-ethynylestra-1(10),2,4-triene-3,17-diol

>  <STRUCTURE_SMILES>
[H][C@]14[C@@]([C@]3([H])CC[C@@](O)(C#C)[C@](C)3CC4)([H])CCC2=CC(O)=CC=C12

>  <STRUCTURE_Parent_SMILES>
[H][C@]14[C@@]([C@]3([H])CC[C@@](O)(C#C)[C@](C)3CC4)([H])CCC2=CC(O)=CC=C12

>  <STRUCTURE_InChI>
InChI=1/C20H24O2/c1-3-20(22)11-9-18-17-6-4-13-12-14(21)5-7-15(13)16(17)8-10-19(18,20)2/h1,5,7,12,16-18,21-22H,4,6,8-11H2,2H3/t16-,17-,18+,19+,20+/m1/s1

>  <STRUCTURE_InChIKey>
BFPYWIDHMRZLRN-SLHNCBLABF

>  <StudyType>
Carcinogenicity

>  <Endpoint>
TD50; Tumor Target Sites

>  <Species>
rat

>  <ActivityOutcome_CPDBAS_Mutagenicity>
inactive

>  <TD50_Rat_mg>
0.2

>  <TD50_Rat_mmol>
0.000675

>  <ActivityScore_CPDBAS_Rat>
58

>  <TargetSites_Rat_Female>
liver

>  <ActivityOutcome_CPDBAS_Rat>
active

>  <ActivityOutcome_CPDBAS_SingleCellCall>
active

>  <ChemicalPage_URL>
http://potency.berkeley.edu/chempages/ETHINYL%20ESTRADIOL.html

$$$$



 11 11  0  0  0  0  0  0  0  0999 V2000
    6.9065   -1.9891    0.0000 N   0  0  0  0  0  0  0  0  0  0  0  0
    5.7531   -2.6590    0.0000 C   0  0  0  0  0  0  0  0  0  0  0  0
    5.7531   -3.9851    0.0000 S   0  0  0  0  0  0  0  0  0  0  0  0
    4.6067   -1.9891    0.0000 C   0  0  0  0  0  0  0  0  0  0  0  0
    3.4533   -2.6590    0.0000 C   0  0  0  0  0  0  0  0  0  0  0  0
    2.2999   -1.9891    0.0000 C   0  0  0  0  0  0  0  0  0  0  0  0
    2.2999   -0.6630    0.0000 N   0  0  0  0  0  0  0  0  0  0  0  0
    3.4533    0.0000    0.0000 C   0  0  0  0  0  0  0  0  0  0  0  0
    4.6067   -0.6630    0.0000 C   0  0  0  0  0  0  0  0  0  0  0  0
    1.1534   -2.6590    0.0000 C   0  0  0  0  0  0  0  0  0  0  0  0
    0.0000   -1.9891    0.0000 C   0  0  0  0  0  0  0  0  0  0  0  0
  1  2  1  0  0  0  0
  2  3  2  0  0  0  0
  2  4  1  0  0  0  0
  4  5  2  0  0  0  0
  4  9  1  0  0  0  0
  5  6  1  0  0  0  0
  6  7  2  0  0  0  0
  6 10  1  0  0  0  0
  7  8  1  0  0  0  0
  8  9  2  0  0  0  0
 10 11  1  0  0  0  0
M  END
>  <DSSTox_RID>
20577

>  <DSSTox_CID>
577

>  <DSSTox_Generic_SID>
20577

>  <DSSTox_FileID>
606_CPDBAS_v5d

>  <STRUCTURE_Formula>
C8H10N2S

>  <STRUCTURE_MolecularWeight>
166.2434

>  <STRUCTURE_ChemicalType>
defined organic

>  <STRUCTURE_TestedForm_DefinedOrganic>
parent

>  <STRUCTURE_Shown>
tested chemical

>  <TestSubstance_ChemicalName>
Ethionamide

>  <TestSubstance_CASRN>
536-33-4

>  <TestSubstance_Description>
single chemical compound

>  <STRUCTURE_ChemicalName_IUPAC>
2-ethylpyridine-4-carbothioamide

>  <STRUCTURE_SMILES>
NC(=S)C1=CC(=NC=C1)CC

>  <STRUCTURE_Parent_SMILES>
NC(=S)C1=CC(=NC=C1)CC

>  <STRUCTURE_InChI>
InChI=1/C8H10N2S/c1-2-7-5-6(8(9)11)3-4-10-7/h3-5H,2H2,1H3,(H2,9,11)/f/h9H2

>  <STRUCTURE_InChIKey>
AEOCXXJPGCBFJA-JSGPKCTECX

>  <StudyType>
Carcinogenicity

>  <Endpoint>
TD50; Tumor Target Sites

>  <Species>
rat; mouse

>  <ActivityOutcome_CPDBAS_Mutagenicity>
inactive

>  <ActivityScore_CPDBAS_Rat>
0

>  <TD50_Rat_Note>
no positive results

>  <TargetSites_Rat_Male>
no positive results

>  <TargetSites_Rat_Female>
no positive results

>  <ActivityOutcome_CPDBAS_Rat>
inactive

>  <TD50_Mouse_mg>
69.3

>  <TD50_Mouse_mmol>
0.417

>  <ActivityScore_CPDBAS_Mouse>
33

>  <TargetSites_Mouse_Male>
no positive results

>  <TargetSites_Mouse_Female>
thyroid gland

>  <ActivityOutcome_CPDBAS_Mouse>
active

>  <ActivityOutcome_CPDBAS_SingleCellCall>
active

>  <NTP_TechnicalReport>
TR 46; final call in CPDB differs due to additional data

>  <ChemicalPage_URL>
http://potency.berkeley.edu/chempages/ETHIONAMIDE.html

$$$$



 10  9  0  0  1  0  0  0  0  0999 V2000
    3.9924    0.0000    0.0000 N   0  0  0  0  0  0  0  0  0  0  0  0
    4.6578   -1.1511    0.0000 C   0  0  1  0  0  0  0  0  0  0  0  0
    3.9924   -2.3023    0.0000 C   0  0  0  0  0  0  0  0  0  0  0  0
    2.6616   -2.3023    0.0000 C   0  0  0  0  0  0  0  0  0  0  0  0
    1.9962   -1.1511    0.0000 S   0  0  0  0  0  0  0  0  0  0  0  0
    0.6654   -1.1511    0.0000 C   0  0  0  0  0  0  0  0  0  0  0  0
    0.0000    0.0000    0.0000 C   0  0  0  0  0  0  0  0  0  0  0  0
    5.9885   -1.1511    0.0000 C   0  0  0  0  0  0  0  0  0  0  0  0
    6.6539    0.0000    0.0000 O   0  0  0  0  0  0  0  0  0  0  0  0
    6.6539   -2.3023    0.0000 O   0  0  0  0  0  0  0  0  0  0  0  0
  2  1  1  6  0  0  0
  2  3  1  0  0  0  0
  2  8  1  0  0  0  0
  3  4  1  0  0  0  0
  4  5  1  0  0  0  0
  5  6  1  0  0  0  0
  6  7  1  0  0  0  0
  8  9  2  0  0  0  0
  8 10  1  0  0  0  0
M  END
>  <DSSTox_RID>
20578

>  <DSSTox_CID>
578

>  <DSSTox_Generic_SID>
20578

>  <DSSTox_FileID>
607_CPDBAS_v5d

>  <STRUCTURE_Formula>
C6H13NO2S

>  <STRUCTURE_MolecularWeight>
163.2342

>  <STRUCTURE_ChemicalType>
defined organic

>  <STRUCTURE_TestedForm_DefinedOrganic>
parent

>  <STRUCTURE_Shown>
tested chemical

>  <TestSubstance_ChemicalName>
Ethionine

>  <TestSubstance_CASRN>
13073-35-3

>  <TestSubstance_Description>
single chemical compound

>  <ChemicalNote>
stereochem

>  <STRUCTURE_ChemicalName_IUPAC>
S-ethyl-L-homocysteine

>  <STRUCTURE_SMILES>
N[C@@H](CCSCC)C(=O)O

>  <STRUCTURE_Parent_SMILES>
N[C@@H](CCSCC)C(=O)O

>  <STRUCTURE_InChI>
InChI=1/C6H13NO2S/c1-2-10-4-3-5(7)6(8)9/h5H,2-4,7H2,1H3,(H,8,9)/t5-/m0/s1/f/h8H

>  <STRUCTURE_InChIKey>
GGLZPLKKBSSKCX-ZEYBBFMUDA

>  <StudyType>
Carcinogenicity

>  <Endpoint>
TD50; Tumor Target Sites

>  <Species>
rat

>  <ActivityOutcome_CPDBAS_Mutagenicity>
inactive

>  <TD50_Rat_mg>
4.97

>  <TD50_Rat_mmol>
0.0304

>  <ActivityScore_CPDBAS_Rat>
41

>  <TD50_Rat_Note>
TD50 value is overestimated as upper 99% confidence limit from study with 100% tumor incidence but no lifetable; harmonic mean of TD50 includes a value for upper 99% confidence limit from study with 100% tumor incidence but no lifetable

>  <TargetSites_Rat_Male>
liver

>  <ActivityOutcome_CPDBAS_Rat>
active

>  <ActivityOutcome_CPDBAS_SingleCellCall>
active

>  <ChemicalPage_URL>
http://potency.berkeley.edu/chempages/ETHIONINE.html

$$$$



 10  9  0  0  0  0  0  0  0  0999 V2000
    3.9924    0.0000    0.0000 N   0  0  0  0  0  0  0  0  0  0  0  0
    4.6578   -1.1511    0.0000 C   0  0  3  0  0  0  0  0  0  0  0  0
    3.9924   -2.3023    0.0000 C   0  0  0  0  0  0  0  0  0  0  0  0
    2.6616   -2.3023    0.0000 C   0  0  0  0  0  0  0  0  0  0  0  0
    1.9962   -1.1511    0.0000 S   0  0  0  0  0  0  0  0  0  0  0  0
    0.6654   -1.1511    0.0000 C   0  0  0  0  0  0  0  0  0  0  0  0
    0.0000    0.0000    0.0000 C   0  0  0  0  0  0  0  0  0  0  0  0
    5.9885   -1.1511    0.0000 C   0  0  0  0  0  0  0  0  0  0  0  0
    6.6539    0.0000    0.0000 O   0  0  0  0  0  0  0  0  0  0  0  0
    6.6539   -2.3023    0.0000 O   0  0  0  0  0  0  0  0  0  0  0  0
  1  2  1  0  0  0  0
  2  3  1  0  0  0  0
  2  8  1  0  0  0  0
  3  4  1  0  0  0  0
  4  5  1  0  0  0  0
  5  6  1  0  0  0  0
  6  7  1  0  0  0  0
  8  9  2  0  0  0  0
  8 10  1  0  0  0  0
M  END
>  <DSSTox_RID>
20579

>  <DSSTox_CID>
579

>  <DSSTox_Generic_SID>
20579

>  <DSSTox_FileID>
608_CPDBAS_v5d

>  <STRUCTURE_Formula>
C6H13NO2S

>  <STRUCTURE_MolecularWeight>
163.2379

>  <STRUCTURE_ChemicalType>
defined organic

>  <STRUCTURE_TestedForm_DefinedOrganic>
parent

>  <STRUCTURE_Shown>
tested chemical

>  <TestSubstance_ChemicalName>
dl-Ethionine

>  <TestSubstance_CASRN>
67-21-0

>  <TestSubstance_Description>
single chemical compound

>  <ChemicalNote>
racemic mixture, d-ethionine [535-32-0], l-ethionine [13073-35-3], structure shown without stereochem

>  <STRUCTURE_ChemicalName_IUPAC>
S-ethylhomocysteine

>  <STRUCTURE_SMILES>
NC(CCSCC)C(=O)O

>  <STRUCTURE_Parent_SMILES>
NC(CCSCC)C(=O)O

>  <STRUCTURE_InChI>
InChI=1/C6H13NO2S/c1-2-10-4-3-5(7)6(8)9/h5H,2-4,7H2,1H3,(H,8,9)/f/h8H

>  <STRUCTURE_InChIKey>
GGLZPLKKBSSKCX-FZOZFQFYCG

>  <StudyType>
Carcinogenicity

>  <Endpoint>
TD50; Tumor Target Sites

>  <Species>
rat; mouse

>  <ActivityOutcome_CPDBAS_Mutagenicity>
inactive

>  <TD50_Rat_mg>
9.76

>  <TD50_Rat_mmol>
0.0598

>  <ActivityScore_CPDBAS_Rat>
38

>  <TD50_Rat_Note>
TD50 is harmonic mean of more than one positive test; harmonic mean of TD50 includes a value for upper 99% confidence limit from study with 100% tumor incidence but no lifetable

>  <TargetSites_Rat_Male>
liver

>  <ActivityOutcome_CPDBAS_Rat>
active

>  <TD50_Mouse_mg>
71.4

>  <TD50_Mouse_mmol>
0.437

>  <ActivityScore_CPDBAS_Mouse>
32

>  <TD50_Mouse_Note>
TD50 is harmonic mean of more than one positive test; greater than ten-fold variation among TD50 values for positive results

>  <TargetSites_Mouse_Male>
liver

>  <TargetSites_Mouse_Female>
liver

>  <ActivityOutcome_CPDBAS_Mouse>
active

>  <ActivityOutcome_CPDBAS_SingleCellCall>
active

>  <ActivityOutcome_CPDBAS_MultiCellCall>
active

>  <ActivityOutcome_CPDBAS_MultiCellCall_Details>
multisex active; multispecies active

>  <Note_CPDBAS>
TD50_Rat modified v3a

>  <ChemicalPage_URL>
http://potency.berkeley.edu/chempages/DL-ETHIONINE.html

$$$$



 13 13  0  0  0  0  0  0  0  0999 V2000
    8.0390   -0.6982    0.0000 C   0  0  0  0  0  0  0  0  0  0  0  0
    6.8998    0.0000    0.0000 N   0  0  0  0  0  0  0  0  0  0  0  0
    8.0390   -2.0304    0.0000 O   0  0  0  0  0  0  0  0  0  0  0  0
    9.1874    0.0000    0.0000 N   0  0  0  0  0  0  0  0  0  0  0  0
    5.7330   -0.6891    0.0000 C   0  0  0  0  0  0  0  0  0  0  0  0
    3.4545   -2.0304    0.0000 C   0  0  0  0  0  0  0  0  0  0  0  0
    4.5937   -0.0276    0.0000 C   0  0  0  0  0  0  0  0  0  0  0  0
    5.7330   -2.0304    0.0000 C   0  0  0  0  0  0  0  0  0  0  0  0
    3.4545   -0.6891    0.0000 C   0  0  0  0  0  0  0  0  0  0  0  0
    4.5937   -2.6735    0.0000 C   0  0  0  0  0  0  0  0  0  0  0  0
    2.2877   -2.7011    0.0000 O   0  0  0  0  0  0  0  0  0  0  0  0
    1.1392   -2.0488    0.0000 C   0  0  0  0  0  0  0  0  0  0  0  0
    0.0000   -2.7195    0.0000 C   0  0  0  0  0  0  0  0  0  0  0  0
  1  2  1  0  0  0  0
  1  3  2  0  0  0  0
  1  4  1  0  0  0  0
  2  5  1  0  0  0  0
  5  7  2  0  0  0  0
  5  8  1  0  0  0  0
  6 10  1  0  0  0  0
  6 11  1  0  0  0  0
  6  9  2  0  0  0  0
  7  9  1  0  0  0  0
  8 10  2  0  0  0  0
 11 12  1  0  0  0  0
 12 13  1  0  0  0  0
M  END
>  <DSSTox_RID>
20580

>  <DSSTox_CID>
580

>  <DSSTox_Generic_SID>
20580

>  <DSSTox_FileID>
609_CPDBAS_v5d

>  <STRUCTURE_Formula>
C9H12N2O2

>  <STRUCTURE_MolecularWeight>
180.2038

>  <STRUCTURE_ChemicalType>
defined organic

>  <STRUCTURE_TestedForm_DefinedOrganic>
parent

>  <STRUCTURE_Shown>
tested chemical

>  <TestSubstance_ChemicalName>
4-Ethoxy-phenylurea

>  <TestSubstance_CASRN>
150-69-6

>  <TestSubstance_Description>
single chemical compound

>  <STRUCTURE_ChemicalName_IUPAC>
1-(4-ethoxyphenyl)urea

>  <STRUCTURE_SMILES>
NC(NC1=CC=C(C=C1)OCC)=O

>  <STRUCTURE_Parent_SMILES>
NC(NC1=CC=C(C=C1)OCC)=O

>  <STRUCTURE_InChI>
InChI=1/C9H12N2O2/c1-2-13-8-5-3-7(4-6-8)11-9(10)12/h3-6H,2H2,1H3,(H3,10,11,12)/f/h11H,10H2

>  <STRUCTURE_InChIKey>
GGLIEWRLXDLBBF-XGEAKUCACL

>  <StudyType>
Carcinogenicity

>  <Endpoint>
TD50; Tumor Target Sites

>  <Species>
rat

>  <ActivityOutcome_CPDBAS_Mutagenicity>
inactive

>  <TD50_Rat_mg>
537

>  <TD50_Rat_mmol>
2.98

>  <ActivityScore_CPDBAS_Rat>
21

>  <TargetSites_Rat_BothSexes>
liver

>  <ActivityOutcome_CPDBAS_Rat>
active

>  <ActivityOutcome_CPDBAS_SingleCellCall>
active

>  <Note_CPDBAS>
Rat added v2a

>  <ChemicalPage_URL>
http://potency.berkeley.edu/chempages/4-ETHOXY-PHENYLUREA.html

$$$$



 12 12  0  0  0  0  0  0  0  0999 V2000
    0.0000   -5.7579    0.0000 N   0  0  0  0  0  0  0  0  0  0  0  0
    0.6622   -4.6063    0.0000 C   0  0  0  0  0  0  0  0  0  0  0  0
    0.0000   -3.4547    0.0000 O   0  0  0  0  0  0  0  0  0  0  0  0
    1.9922   -4.6063    0.0000 C   0  0  0  0  0  0  0  0  0  0  0  0
    2.6601   -3.4547    0.0000 C   0  0  0  0  0  0  0  0  0  0  0  0
    3.9902   -3.4547    0.0000 C   0  0  0  0  0  0  0  0  0  0  0  0
    4.6524   -4.6063    0.0000 C   0  0  0  0  0  0  0  0  0  0  0  0
    3.9902   -5.7579    0.0000 C   0  0  0  0  0  0  0  0  0  0  0  0
    2.6601   -5.7579    0.0000 C   0  0  0  0  0  0  0  0  0  0  0  0
    1.9922   -2.3032    0.0000 O   0  0  0  0  0  0  0  0  0  0  0  0
    2.6601   -1.1516    0.0000 C   0  0  0  0  0  0  0  0  0  0  0  0
    1.9922    0.0000    0.0000 C   0  0  0  0  0  0  0  0  0  0  0  0
  1  2  1  0  0  0  0
  2  3  2  0  0  0  0
  2  4  1  0  0  0  0
  4  5  2  0  0  0  0
  4  9  1  0  0  0  0
  5  6  1  0  0  0  0
  5 10  1  0  0  0  0
  6  7  2  0  0  0  0
  7  8  1  0  0  0  0
  8  9  2  0  0  0  0
 10 11  1  0  0  0  0
 11 12  1  0  0  0  0
M  END
>  <DSSTox_RID>
20581

>  <DSSTox_CID>
581

>  <DSSTox_Generic_SID>
20581

>  <DSSTox_FileID>
610_CPDBAS_v5d

>  <STRUCTURE_Formula>
C9H11NO2

>  <STRUCTURE_MolecularWeight>
165.1891

>  <STRUCTURE_ChemicalType>
defined organic

>  <STRUCTURE_TestedForm_DefinedOrganic>
parent

>  <STRUCTURE_Shown>
tested chemical

>  <TestSubstance_ChemicalName>
o-Ethoxybenzamide

>  <TestSubstance_CASRN>
938-73-8

>  <TestSubstance_Description>
single chemical compound

>  <STRUCTURE_ChemicalName_IUPAC>
2-ethoxybenzamide

>  <STRUCTURE_SMILES>
NC(=O)C1=C(C=CC=C1)OCC

>  <STRUCTURE_Parent_SMILES>
NC(=O)C1=C(C=CC=C1)OCC

>  <STRUCTURE_InChI>
InChI=1/C9H11NO2/c1-2-12-8-6-4-3-5-7(8)9(10)11/h3-6H,2H2,1H3,(H2,10,11)/f/h10H2

>  <STRUCTURE_InChIKey>
SBNKFTQSBPKMBZ-GIMVELNWCI

>  <StudyType>
Carcinogenicity

>  <Endpoint>
TD50; Tumor Target Sites

>  <Species>
mouse

>  <ActivityOutcome_CPDBAS_Mutagenicity>
inactive

>  <TD50_Mouse_mg>
513

>  <TD50_Mouse_mmol>
3.11

>  <ActivityScore_CPDBAS_Mouse>
23

>  <TargetSites_Mouse_Male>
liver

>  <TargetSites_Mouse_Female>
no positive results

>  <ActivityOutcome_CPDBAS_Mouse>
active

>  <ActivityOutcome_CPDBAS_SingleCellCall>
active

>  <Note_CPDBAS>
Mutagenicity_SAL_CPDB added v3a

>  <ChemicalPage_URL>
http://potency.berkeley.edu/chempages/o-ETHOXYBENZAMIDE.html

$$$$



 16 17  0  0  0  0  0  0  0  0999 V2000
    6.9073   -4.5736    0.0000 C   0  0  0  0  0  0  0  0  0  0  0  0
    6.9073   -3.2428    0.0000 C   0  0  0  0  0  0  0  0  0  0  0  0
    8.0601   -2.5774    0.0000 C   0  0  0  0  0  0  0  0  0  0  0  0
    8.0601   -1.2465    0.0000 C   0  0  0  0  0  0  0  0  0  0  0  0
    6.9073   -0.5811    0.0000 N   0  0  0  0  0  0  0  0  0  0  0  0
    5.7545   -1.2465    0.0000 C   0  0  0  0  0  0  0  0  0  0  0  0
    5.7545   -2.5774    0.0000 C   0  0  0  0  0  0  0  0  0  0  0  0
    4.6111   -3.2428    0.0000 C   0  0  0  0  0  0  0  0  0  0  0  0
    3.4583   -2.5774    0.0000 C   0  0  0  0  0  0  0  0  0  0  0  0
    3.4583   -1.2465    0.0000 C   0  0  0  0  0  0  0  0  0  0  0  0
    4.6111   -0.5811    0.0000 C   0  0  0  0  0  0  0  0  0  0  0  0
    2.3056   -3.2428    0.0000 O   0  0  0  0  0  0  0  0  0  0  0  0
    1.1528   -2.5774    0.0000 C   0  0  0  0  0  0  0  0  0  0  0  0
    0.0000   -3.2428    0.0000 C   0  0  0  0  0  0  0  0  0  0  0  0
    8.5193    0.0000    0.0000 C   0  0  0  0  0  0  0  0  0  0  0  0
    9.3722   -1.4808    0.0000 C   0  0  0  0  0  0  0  0  0  0  0  0
  1  2  1  0  0  0  0
  2  3  2  0  0  0  0
  2  7  1  0  0  0  0
  3  4  1  0  0  0  0
  4  5  1  0  0  0  0
  4 15  1  0  0  0  0
  4 16  1  0  0  0  0
  5  6  1  0  0  0  0
  6  7  2  0  0  0  0
  6 11  1  0  0  0  0
  7  8  1  0  0  0  0
  8  9  2  0  0  0  0
  9 10  1  0  0  0  0
  9 12  1  0  0  0  0
 10 11  2  0  0  0  0
 12 13  1  0  0  0  0
 13 14  1  0  0  0  0
M  END
>  <DSSTox_RID>
20582

>  <DSSTox_CID>
582

>  <DSSTox_Generic_SID>
20582

>  <DSSTox_FileID>
611_CPDBAS_v5d

>  <STRUCTURE_Formula>
C14H19NO

>  <STRUCTURE_MolecularWeight>
217.3068

>  <STRUCTURE_ChemicalType>
defined organic

>  <STRUCTURE_TestedForm_DefinedOrganic>
parent

>  <STRUCTURE_Shown>
tested chemical

>  <TestSubstance_ChemicalName>
Ethoxyquin

>  <TestSubstance_CASRN>
91-53-2

>  <TestSubstance_Description>
single chemical compound

>  <STRUCTURE_ChemicalName_IUPAC>
6-(ethyloxy)-2,2,4-trimethyl-1,2-dihydroquinoline

>  <STRUCTURE_SMILES>
CC1=CC(NC2=C1C=C(C=C2)OCC)(C)C

>  <STRUCTURE_Parent_SMILES>
CC1=CC(NC2=C1C=C(C=C2)OCC)(C)C

>  <STRUCTURE_InChI>
InChI=1/C14H19NO/c1-5-16-11-6-7-13-12(8-11)10(2)9-14(3,4)15-13/h6-9,15H,5H2,1-4H3

>  <STRUCTURE_InChIKey>
DECIPOUIJURFOJ-UHFFFAOYAT

>  <StudyType>
Carcinogenicity

>  <Endpoint>
TD50; Tumor Target Sites

>  <Species>
rat

>  <ActivityOutcome_CPDBAS_Mutagenicity>
inactive

>  <ActivityScore_CPDBAS_Rat>
0

>  <TD50_Rat_Note>
no positive results

>  <TargetSites_Rat_Male>
no positive results

>  <TargetSites_Rat_Female>
no positive results

>  <ActivityOutcome_CPDBAS_Rat>
inactive

>  <ActivityOutcome_CPDBAS_SingleCellCall>
inactive

>  <ActivityOutcome_CPDBAS_MultiCellCall>
inactive

>  <ActivityOutcome_CPDBAS_MultiCellCall_Details>
multisex inactive

>  <ChemicalPage_URL>
http://potency.berkeley.edu/chempages/ETHOXYQUIN.html

$$$$



  7  6  0  0  0  0  0  0  0  0999 V2000
    2.6592    0.0000    0.0000 O   0  0  0  0  0  0  0  0  0  0  0  0
    1.9979   -1.1550    0.0000 C   0  0  0  0  0  0  0  0  0  0  0  0
    2.6592   -2.3053    0.0000 O   0  0  0  0  0  0  0  0  0  0  0  0
    3.9912   -2.3053    0.0000 C   0  0  0  0  0  0  0  0  0  0  0  0
    4.6571   -1.1550    0.0000 C   0  0  0  0  0  0  0  0  0  0  0  0
    0.6660   -1.1550    0.0000 C   0  0  0  0  0  0  0  0  0  0  0  0
    0.0000   -2.3053    0.0000 C   0  0  0  0  0  0  0  0  0  0  0  0
  1  2  2  0  0  0  0
  2  3  1  0  0  0  0
  2  6  1  0  0  0  0
  3  4  1  0  0  0  0
  4  5  1  0  0  0  0
  6  7  2  0  0  0  0
M  END
>  <DSSTox_RID>
20583

>  <DSSTox_CID>
583

>  <DSSTox_Generic_SID>
20583

>  <DSSTox_FileID>
612_CPDBAS_v5d

>  <STRUCTURE_Formula>
C5H8O2

>  <STRUCTURE_MolecularWeight>
100.1158

>  <STRUCTURE_ChemicalType>
defined organic

>  <STRUCTURE_TestedForm_DefinedOrganic>
parent

>  <STRUCTURE_Shown>
tested chemical

>  <TestSubstance_ChemicalName>
Ethyl acrylate

>  <TestSubstance_CASRN>
140-88-5

>  <TestSubstance_Description>
single chemical compound

>  <STRUCTURE_ChemicalName_IUPAC>
ethyl acrylate

>  <STRUCTURE_SMILES>
O=C(OCC)C=C

>  <STRUCTURE_Parent_SMILES>
O=C(OCC)C=C

>  <STRUCTURE_InChI>
InChI=1/C5H8O2/c1-3-5(6)7-4-2/h3H,1,4H2,2H3

>  <STRUCTURE_InChIKey>
JIGUQPWFLRLWPJ-UHFFFAOYAN

>  <StudyType>
Carcinogenicity

>  <Endpoint>
TD50; Tumor Target Sites

>  <Species>
rat; mouse

>  <ActivityOutcome_CPDBAS_Mutagenicity>
inactive

>  <TD50_Rat_mg>
119

>  <TD50_Rat_mmol>
1.19

>  <ActivityScore_CPDBAS_Rat>
25

>  <TD50_Rat_Note>
TD50 is harmonic mean of more than one positive test

>  <TargetSites_Rat_Male>
stomach

>  <TargetSites_Rat_Female>
stomach

>  <ActivityOutcome_CPDBAS_Rat>
active

>  <TD50_Mouse_mg>
324

>  <TD50_Mouse_mmol>
3.24

>  <ActivityScore_CPDBAS_Mouse>
22

>  <TD50_Mouse_Note>
TD50 is harmonic mean of more than one positive test

>  <TargetSites_Mouse_Male>
stomach

>  <TargetSites_Mouse_Female>
stomach

>  <ActivityOutcome_CPDBAS_Mouse>
active

>  <ActivityOutcome_CPDBAS_SingleCellCall>
active

>  <ActivityOutcome_CPDBAS_MultiCellCall>
active

>  <ActivityOutcome_CPDBAS_MultiCellCall_Details>
multisex active; multispecies active

>  <NTP_TechnicalReport>
TR 259

>  <ChemicalPage_URL>
http://potency.berkeley.edu/chempages/ETHYL%20ACRYLATE.html

$$$$



  3  2  0  0  0  0  0  0  0  0999 V2000
    2.3030   -0.6656    0.0000 C   0  0  0  0  0  0  0  0  0  0  0  0
    1.1515    0.0000    0.0000 C   0  0  0  0  0  0  0  0  0  0  0  0
    0.0000   -0.6656    0.0000 O   0  0  0  0  0  0  0  0  0  0  0  0
  1  2  1  0  0  0  0
  2  3  1  0  0  0  0
M  END
>  <DSSTox_RID>
20584

>  <DSSTox_CID>
584

>  <DSSTox_Generic_SID>
20584

>  <DSSTox_FileID>
613_CPDBAS_v5d

>  <STRUCTURE_Formula>
C2H6O

>  <STRUCTURE_MolecularWeight>
46.0684

>  <STRUCTURE_ChemicalType>
defined organic

>  <STRUCTURE_TestedForm_DefinedOrganic>
parent

>  <STRUCTURE_Shown>
tested chemical

>  <TestSubstance_ChemicalName>
Ethyl alcohol

>  <TestSubstance_CASRN>
64-17-5

>  <TestSubstance_Description>
single chemical compound

>  <STRUCTURE_ChemicalName_IUPAC>
ethanol

>  <STRUCTURE_SMILES>
CCO

>  <STRUCTURE_Parent_SMILES>
CCO

>  <STRUCTURE_InChI>
InChI=1/C2H6O/c1-2-3/h3H,2H2,1H3

>  <STRUCTURE_InChIKey>
LFQSCWFLJHTTHZ-UHFFFAOYAB

>  <StudyType>
Carcinogenicity

>  <Endpoint>
TD50; Tumor Target Sites

>  <Species>
rat; mouse; hamster

>  <ActivityOutcome_CPDBAS_Mutagenicity>
inactive

>  <TD50_Rat_mg>
9110

>  <TD50_Rat_mmol>
198

>  <ActivityScore_CPDBAS_Rat>
2

>  <TargetSites_Rat_Male>
adrenal gland; liver; pancreas; pituitary gland

>  <TargetSites_Rat_Female>
no positive results

>  <ActivityOutcome_CPDBAS_Rat>
active

>  <ActivityScore_CPDBAS_Mouse>
0

>  <TD50_Mouse_Note>
no positive results

>  <TargetSites_Mouse_Male>
no positive results

>  <TargetSites_Mouse_Female>
no positive results

>  <ActivityOutcome_CPDBAS_Mouse>
inactive

>  <ActivityScore_CPDBAS_Hamster>
0

>  <TD50_Hamster_Note>
no positive results

>  <TargetSites_Hamster_Male>
no positive results

>  <ActivityOutcome_CPDBAS_Hamster>
inactive

>  <ActivityOutcome_CPDBAS_SingleCellCall>
active

>  <ActivityOutcome_CPDBAS_MultiCellCall>
active

>  <ActivityOutcome_CPDBAS_MultiCellCall_Details>
multisite active

>  <Note_CPDBAS>
Hamster added v2a; Target Sites Hamster modified v3a

>  <ChemicalPage_URL>
http://potency.berkeley.edu/chempages/ETHYL%20ALCOHOL.html

$$$$



  7  6  0  0  0  0  0  0  0  0999 V2000
    1.9956   -1.1548    0.0000 N   0  3  0  0  0  0  0  0  0  0  0  0
    3.3260   -1.1548    0.0000 N   0  0  0  0  0  0  0  0  0  0  0  0
    3.9912   -2.3043    0.0000 C   0  0  0  0  0  0  0  0  0  0  0  0
    5.3216   -2.3043    0.0000 C   0  0  0  0  0  0  0  0  0  0  0  0
    1.3304    0.0000    0.0000 C   0  0  0  0  0  0  0  0  0  0  0  0
    0.0000    0.0000    0.0000 C   0  0  0  0  0  0  0  0  0  0  0  0
    1.3304   -2.3043    0.0000 O   0  5  0  0  0  0  0  0  0  0  0  0
  1  2  2  0  0  0  0
  1  5  1  0  0  0  0
  1  7  1  0  0  0  0
  2  3  1  0  0  0  0
  3  4  1  0  0  0  0
  5  6  1  0  0  0  0
M  END
>  <DSSTox_RID>
20585

>  <DSSTox_CID>
585

>  <DSSTox_Generic_SID>
20585

>  <DSSTox_FileID>
614_CPDBAS_v5d

>  <STRUCTURE_Formula>
C4H10N2O

>  <STRUCTURE_MolecularWeight>
102.1358

>  <STRUCTURE_ChemicalType>
defined organic

>  <STRUCTURE_TestedForm_DefinedOrganic>
parent

>  <STRUCTURE_Shown>
tested chemical

>  <TestSubstance_ChemicalName>
Z-Ethyl-O,N,N-azoxyethane

>  <TestSubstance_CASRN>
16301-26-1

>  <TestSubstance_Description>
single chemical compound

>  <ChemicalNote>
stereochem

>  <STRUCTURE_ChemicalName_IUPAC>
[(Z)-ethyl-NNO-azoxy]ethane

>  <STRUCTURE_SMILES>
[O-]\[N+](CC)=N/CC

>  <STRUCTURE_Parent_SMILES>
[O-]\[N+](CC)=N/CC

>  <STRUCTURE_InChI>
InChI=1/C4H10N2O/c1-3-5-6(7)4-2/h3-4H2,1-2H3/b6-5-

>  <STRUCTURE_InChIKey>
SZOHWYCBDJPVGO-WAYWQWQTBK

>  <StudyType>
Carcinogenicity

>  <Endpoint>
TD50; Tumor Target Sites

>  <Species>
rat

>  <TD50_Rat_mg>
0.022

>  <TD50_Rat_mmol>
0.000215

>  <ActivityScore_CPDBAS_Rat>
64

>  <TargetSites_Rat_Male>
esophagus; liver; nasal cavity; vascular system

>  <ActivityOutcome_CPDBAS_Rat>
active

>  <ActivityOutcome_CPDBAS_SingleCellCall>
active

>  <ActivityOutcome_CPDBAS_MultiCellCall>
active

>  <ActivityOutcome_CPDBAS_MultiCellCall_Details>
multisite active

>  <ChemicalPage_URL>
http://potency.berkeley.edu/chempages/Z-ETHYL-O,N,N-AZOXYETHANE.html

$$$$



  6  5  0  0  0  0  0  0  0  0999 V2000
    1.1559   -3.3081    0.0000 C   0  0  0  0  0  0  0  0  0  0  0  0
    2.3117   -3.9857    0.0000 C   0  0  0  0  0  0  0  0  0  0  0  0
    1.1559   -1.9729    0.0000 N   0  3  0  0  0  0  0  0  0  0  0  0
    0.0000   -1.3153    0.0000 N   0  0  0  0  0  0  0  0  0  0  0  0
    2.3117   -1.3153    0.0000 O   0  5  0  0  0  0  0  0  0  0  0  0
    0.0000    0.0000    0.0000 C   0  0  0  0  0  0  0  0  0  0  0  0
  1  2  1  0  0  0  0
  1  3  1  0  0  0  0
  3  4  2  0  0  0  0
  3  5  1  0  0  0  0
  4  6  1  0  0  0  0
M  END
>  <DSSTox_RID>
20586

>  <DSSTox_CID>
586

>  <DSSTox_Generic_SID>
20586

>  <DSSTox_FileID>
615_CPDBAS_v5d

>  <STRUCTURE_Formula>
C3H8N2O

>  <STRUCTURE_MolecularWeight>
88.109

>  <STRUCTURE_ChemicalType>
defined organic

>  <STRUCTURE_TestedForm_DefinedOrganic>
parent

>  <STRUCTURE_Shown>
tested chemical

>  <TestSubstance_ChemicalName>
Z-Ethyl-O,N,N-azoxymethane

>  <TestSubstance_CASRN>
57497-29-7

>  <TestSubstance_Description>
single chemical compound

>  <ChemicalNote>
stereochem

>  <STRUCTURE_ChemicalName_IUPAC>
[(Z)-methyl-NNO-azoxy]ethane

>  <STRUCTURE_SMILES>
[O-]\[N+](CC)=N/C

>  <STRUCTURE_Parent_SMILES>
[O-]\[N+](CC)=N/C

>  <STRUCTURE_InChI>
InChI=1/C3H8N2O/c1-3-5(6)4-2/h3H2,1-2H3/b5-4-

>  <STRUCTURE_InChIKey>
MIJJGTDCQRHTPM-PLNGDYQABY

>  <StudyType>
Carcinogenicity

>  <Endpoint>
TD50; Tumor Target Sites

>  <Species>
rat

>  <TD50_Rat_mg>
0.0189

>  <TD50_Rat_mmol>
0.000215

>  <ActivityScore_CPDBAS_Rat>
64

>  <TargetSites_Rat_Male>
large intestine; liver; small intestine; vascular system

>  <ActivityOutcome_CPDBAS_Rat>
active

>  <ActivityOutcome_CPDBAS_SingleCellCall>
active

>  <ActivityOutcome_CPDBAS_MultiCellCall>
active

>  <ActivityOutcome_CPDBAS_MultiCellCall_Details>
multisite active

>  <Note_CPDBAS>
Mutagenicity_SAL_CPDB added v3a

>  <ChemicalPage_URL>
http://potency.berkeley.edu/chempages/Z-ETHYL-O,N,N-AZOXYMETHANE.html

$$$$



  7  6  0  0  0  0  0  0  0  0999 V2000
    2.6592    0.0000    0.0000 O   0  0  0  0  0  0  0  0  0  0  0  0
    1.9979   -1.1550    0.0000 C   0  0  0  0  0  0  0  0  0  0  0  0
    2.6592   -2.3053    0.0000 O   0  0  0  0  0  0  0  0  0  0  0  0
    3.9912   -2.3053    0.0000 C   0  0  0  0  0  0  0  0  0  0  0  0
    4.6571   -1.1550    0.0000 C   0  0  0  0  0  0  0  0  0  0  0  0
    0.6660   -1.1550    0.0000 C   0  0  0  0  0  0  0  0  0  0  0  0
    0.0000   -2.3053    0.0000 Br  0  0  0  0  0  0  0  0  0  0  0  0
  1  2  2  0  0  0  0
  2  3  1  0  0  0  0
  2  6  1  0  0  0  0
  3  4  1  0  0  0  0
  4  5  1  0  0  0  0
  6  7  1  0  0  0  0
M  END
>  <DSSTox_RID>
20587

>  <DSSTox_CID>
587

>  <DSSTox_Generic_SID>
20587

>  <DSSTox_FileID>
616_CPDBAS_v5d

>  <STRUCTURE_Formula>
C4H7BrO2

>  <STRUCTURE_MolecularWeight>
167.0012

>  <STRUCTURE_ChemicalType>
defined organic

>  <STRUCTURE_TestedForm_DefinedOrganic>
parent

>  <STRUCTURE_Shown>
tested chemical

>  <TestSubstance_ChemicalName>
Ethyl bromoacetate

>  <TestSubstance_CASRN>
105-36-2

>  <TestSubstance_Description>
single chemical compound

>  <STRUCTURE_ChemicalName_IUPAC>
ethyl bromoacetate

>  <STRUCTURE_SMILES>
O=C(OCC)CBr

>  <STRUCTURE_Parent_SMILES>
O=C(OCC)CBr

>  <STRUCTURE_InChI>
InChI=1/C4H7BrO2/c1-2-7-4(6)3-5/h2-3H2,1H3

>  <STRUCTURE_InChIKey>
PQJJJMRNHATNKG-UHFFFAOYAE

>  <StudyType>
Carcinogenicity

>  <Endpoint>
TD50; Tumor Target Sites

>  <Species>
mouse

>  <ActivityOutcome_CPDBAS_Mutagenicity>
active

>  <ActivityScore_CPDBAS_Mouse>
0

>  <TD50_Mouse_Note>
no positive results

>  <TargetSites_Mouse_Female>
no positive results

>  <ActivityOutcome_CPDBAS_Mouse>
inactive

>  <ActivityOutcome_CPDBAS_SingleCellCall>
inactive

>  <ChemicalPage_URL>
http://potency.berkeley.edu/chempages/ETHYL%20BROMOACETATE.html

$$$$



  9  8  0  0  1  0  0  0  0  0999 V2000
    1.1530   -1.3257    0.0000 C   0  0  0  0  0  0  0  0  0  0  0  0
    2.2992   -1.9954    0.0000 C   0  0  2  0  0  0  0  0  0  0  0  0
    3.4522   -1.3257    0.0000 C   0  0  0  0  0  0  0  0  0  0  0  0
    0.0000   -1.9954    0.0000 O   0  0  0  0  0  0  0  0  0  0  0  0
    1.1530    0.0000    0.0000 O   0  0  0  0  0  0  0  0  0  0  0  0
    2.2992   -3.3210    0.0000 N   0  0  0  0  0  0  0  0  0  0  0  0
    4.6053   -1.9954    0.0000 S   0  0  0  0  0  0  0  0  0  0  0  0
    5.7514   -1.3257    0.0000 C   0  0  0  0  0  0  0  0  0  0  0  0
    6.9045   -1.9954    0.0000 C   0  0  0  0  0  0  0  0  0  0  0  0
  1  2  1  0  0  0  0
  1  4  2  0  0  0  0
  1  5  1  0  0  0  0
  2  3  1  0  0  0  0
  2  6  1  6  0  0  0
  3  7  1  0  0  0  0
  7  8  1  0  0  0  0
  8  9  1  0  0  0  0
M  END
>  <DSSTox_RID>
20588

>  <DSSTox_CID>
588

>  <DSSTox_Generic_SID>
20588

>  <DSSTox_FileID>
617_CPDBAS_v5d

>  <STRUCTURE_Formula>
C5H11NO2S

>  <STRUCTURE_MolecularWeight>
149.2074

>  <STRUCTURE_ChemicalType>
defined organic

>  <STRUCTURE_TestedForm_DefinedOrganic>
parent

>  <STRUCTURE_Shown>
tested chemical

>  <TestSubstance_ChemicalName>
S-Ethyl-l-cysteine

>  <TestSubstance_CASRN>
2629-59-6

>  <TestSubstance_Description>
single chemical compound

>  <ChemicalNote>
stereochem

>  <STRUCTURE_ChemicalName_IUPAC>
S-ethyl-L-cysteine

>  <STRUCTURE_SMILES>
OC(=O)[C@@H](N)CSCC

>  <STRUCTURE_Parent_SMILES>
OC(=O)[C@@H](N)CSCC

>  <STRUCTURE_InChI>
InChI=1/C5H11NO2S/c1-2-9-3-4(6)5(7)8/h4H,2-3,6H2,1H3,(H,7,8)/t4-/m0/s1/f/h7H

>  <STRUCTURE_InChIKey>
ULXKXLZEOGLCRJ-XWEZEGGSDW

>  <StudyType>
Carcinogenicity

>  <Endpoint>
TD50; Tumor Target Sites

>  <Species>
rat

>  <ActivityScore_CPDBAS_Rat>
0

>  <TD50_Rat_Note>
no positive results

>  <TargetSites_Rat_Male>
no positive results

>  <ActivityOutcome_CPDBAS_Rat>
inactive

>  <ActivityOutcome_CPDBAS_SingleCellCall>
inactive

>  <ChemicalPage_URL>
http://potency.berkeley.edu/chempages/S-ETHYL-L-CYSTEINE.html

$$$$



 20 21  0  0  0  0  0  0  0  0999 V2000
    5.7629   -5.9805    0.0000 Cl  0  0  0  0  0  0  0  0  0  0  0  0
    4.6020   -5.3172    0.0000 C   0  0  0  0  0  0  0  0  0  0  0  0
    4.6020   -3.9905    0.0000 C   0  0  0  0  0  0  0  0  0  0  0  0
    3.4515   -3.3168    0.0000 C   0  0  0  0  0  0  0  0  0  0  0  0
    2.3010   -3.9905    0.0000 C   0  0  0  0  0  0  0  0  0  0  0  0
    1.1505   -3.3168    0.0000 C   0  0  0  0  0  0  0  0  0  0  0  0
    1.1505   -1.9901    0.0000 C   0  0  0  0  0  0  0  0  0  0  0  0
    2.3010   -1.3267    0.0000 C   0  0  0  0  0  0  0  0  0  0  0  0
    3.4515   -1.9901    0.0000 C   0  0  0  0  0  0  0  0  0  0  0  0
    0.0000   -1.3267    0.0000 C   0  0  0  0  0  0  0  0  0  0  0  0
    0.0000    0.0000    0.0000 C   0  0  0  0  0  0  0  0  0  0  0  0
    5.7629   -3.3168    0.0000 C   0  0  0  0  0  0  0  0  0  0  0  0
    5.7629   -1.9901    0.0000 C   0  0  0  0  0  0  0  0  0  0  0  0
    6.9134   -1.3267    0.0000 C   0  0  0  0  0  0  0  0  0  0  0  0
    8.0639   -1.9901    0.0000 C   0  0  0  0  0  0  0  0  0  0  0  0
    8.0639   -3.3168    0.0000 C   0  0  0  0  0  0  0  0  0  0  0  0
    6.9134   -3.9905    0.0000 C   0  0  0  0  0  0  0  0  0  0  0  0
    9.2144   -1.3267    0.0000 C   0  0  0  0  0  0  0  0  0  0  0  0
   10.3649   -1.9901    0.0000 C   0  0  0  0  0  0  0  0  0  0  0  0
    3.4515   -5.9805    0.0000 Cl  0  0  0  0  0  0  0  0  0  0  0  0
  1  2  1  0  0  0  0
  2  3  1  0  0  0  0
  2 20  1  0  0  0  0
  3  4  1  0  0  0  0
  3 12  1  0  0  0  0
  4  5  2  0  0  0  0
  4  9  1  0  0  0  0
  5  6  1  0  0  0  0
  6  7  2  0  0  0  0
  7  8  1  0  0  0  0
  7 10  1  0  0  0  0
  8  9  2  0  0  0  0
 10 11  1  0  0  0  0
 12 13  2  0  0  0  0
 12 17  1  0  0  0  0
 13 14  1  0  0  0  0
 14 15  2  0  0  0  0
 15 16  1  0  0  0  0
 15 18  1  0  0  0  0
 16 17  2  0  0  0  0
 18 19  1  0  0  0  0
M  END
>  <DSSTox_RID>
20589

>  <DSSTox_CID>
589

>  <DSSTox_Generic_SID>
20589

>  <DSSTox_FileID>
618_CPDBAS_v5d

>  <STRUCTURE_Formula>
C18H20Cl2

>  <STRUCTURE_MolecularWeight>
307.2574

>  <STRUCTURE_ChemicalType>
defined organic

>  <STRUCTURE_TestedForm_DefinedOrganic>
parent

>  <STRUCTURE_Shown>
tested chemical

>  <TestSubstance_ChemicalName>
p,p'-Ethyl-DDD

>  <TestSubstance_CASRN>
72-56-0

>  <TestSubstance_Description>
single chemical compound

>  <STRUCTURE_ChemicalName_IUPAC>
1,1'-(2,2-dichloroethane-1,1-diyl)bis(4-ethylbenzene)

>  <STRUCTURE_SMILES>
ClC(C(C1=CC=C(C=C1)CC)C2=CC=C(C=C2)CC)Cl

>  <STRUCTURE_Parent_SMILES>
ClC(C(C1=CC=C(C=C1)CC)C2=CC=C(C=C2)CC)Cl

>  <STRUCTURE_InChI>
InChI=1/C18H20Cl2/c1-3-13-5-9-15(10-6-13)17(18(19)20)16-11-7-14(4-2)8-12-16/h5-12,17-18H,3-4H2,1-2H3

>  <STRUCTURE_InChIKey>
QFMDFTQOJHFVNR-UHFFFAOYAJ

>  <StudyType>
Carcinogenicity

>  <Endpoint>
TD50; Tumor Target Sites

>  <Species>
rat; mouse

>  <ActivityOutcome_CPDBAS_Mutagenicity>
active

>  <ActivityScore_CPDBAS_Rat>
0

>  <TD50_Rat_Note>
no positive results

>  <TargetSites_Rat_Male>
no positive results

>  <TargetSites_Rat_Female>
no positive results

>  <ActivityOutcome_CPDBAS_Rat>
inactive

>  <ActivityScore_CPDBAS_Mouse>
0

>  <TD50_Mouse_Note>
no positive results

>  <TargetSites_Mouse_Male>
no positive results

>  <TargetSites_Mouse_Female>
no positive results

>  <ActivityOutcome_CPDBAS_Mouse>
inactive

>  <ActivityOutcome_CPDBAS_SingleCellCall>
inactive

>  <ActivityOutcome_CPDBAS_MultiCellCall>
inactive

>  <ActivityOutcome_CPDBAS_MultiCellCall_Details>
multisex inactive; multispecies inactive

>  <NTP_TechnicalReport>
TR 156

>  <ChemicalPage_URL>
http://potency.berkeley.edu/chempages/p,p'-ETHYL-DDD.html

$$$$



  6  5  0  0  0  0  0  0  0  0999 V2000
    2.3042   -1.3318    0.0000 N   0  0  0  0  0  0  0  0  0  0  0  0
    2.3042    0.0000    0.0000 N   0  0  0  0  0  0  0  0  0  0  0  0
    3.4563   -1.9954    0.0000 C   0  0  0  0  0  0  0  0  0  0  0  0
    4.6084   -1.3318    0.0000 C   0  0  0  0  0  0  0  0  0  0  0  0
    1.1521   -1.9954    0.0000 C   0  0  0  0  0  0  0  0  0  0  0  0
    0.0000   -1.3318    0.0000 O   0  0  0  0  0  0  0  0  0  0  0  0
  1  2  1  0  0  0  0
  1  3  1  0  0  0  0
  1  5  1  0  0  0  0
  3  4  1  0  0  0  0
  5  6  2  0  0  0  0
M  END
>  <DSSTox_RID>
20590

>  <DSSTox_CID>
590

>  <DSSTox_Generic_SID>
20590

>  <DSSTox_FileID>
619_CPDBAS_v5d

>  <STRUCTURE_Formula>
C3H8N2O

>  <STRUCTURE_MolecularWeight>
88.109

>  <STRUCTURE_ChemicalType>
defined organic

>  <STRUCTURE_TestedForm_DefinedOrganic>
parent

>  <STRUCTURE_Shown>
tested chemical

>  <TestSubstance_ChemicalName>
N-Ethyl-N-formylhydrazine

>  <TestSubstance_CASRN>
74920-78-8

>  <TestSubstance_Description>
single chemical compound

>  <STRUCTURE_ChemicalName_IUPAC>
N-ethylformic hydrazide

>  <STRUCTURE_SMILES>
N(N)(CC)C=O

>  <STRUCTURE_Parent_SMILES>
N(N)(CC)C=O

>  <STRUCTURE_InChI>
InChI=1/C3H8N2O/c1-2-5(4)3-6/h3H,2,4H2,1H3

>  <STRUCTURE_InChIKey>
NMLIDGSGENKDLB-UHFFFAOYAI

>  <StudyType>
Carcinogenicity

>  <Endpoint>
TD50; Tumor Target Sites

>  <Species>
rat; mouse

>  <TD50_Mouse_mg>
2.8

>  <TD50_Mouse_mmol>
0.0318

>  <ActivityScore_CPDBAS_Mouse>
45

>  <TD50_Mouse_Note>
TD50 is harmonic mean of more than one positive test

>  <TargetSites_Mouse_Male>
gall bladder; liver; lung; preputial gland; vascular system

>  <TargetSites_Mouse_Female>
lung; vascular system

>  <ActivityOutcome_CPDBAS_Mouse>
active

>  <ActivityOutcome_CPDBAS_SingleCellCall>
active

>  <ActivityOutcome_CPDBAS_MultiCellCall>
active

>  <ActivityOutcome_CPDBAS_MultiCellCall_Details>
multisite active; multisex active

>  <ChemicalPage_URL>
http://potency.berkeley.edu/chempages/N-ETHYL-N-FORMYLHYDRAZINE.html

$$$$



 15 16  0  0  0  0  0  0  0  0999 V2000
    0.0000   -4.2176    0.0000 C   0  0  0  0  0  0  0  0  0  0  0  0
    1.3110   -3.9889    0.0000 C   0  0  3  0  0  0  0  0  0  0  0  0
    1.3110   -2.6611    0.0000 C   0  0  0  0  0  0  0  0  0  0  0  0
    0.1562   -1.9972    0.0000 C   0  0  0  0  0  0  0  0  0  0  0  0
    0.1562   -0.6639    0.0000 C   0  0  0  0  0  0  0  0  0  0  0  0
    1.3110    0.0000    0.0000 C   0  0  0  0  0  0  0  0  0  0  0  0
    2.4603   -0.6639    0.0000 C   0  0  0  0  0  0  0  0  0  0  0  0
    2.4603   -1.9972    0.0000 C   0  0  0  0  0  0  0  0  0  0  0  0
    2.6165   -4.2176    0.0000 C   0  0  3  0  0  0  0  0  0  0  0  0
    1.7629   -5.2386    0.0000 O   0  0  0  0  0  0  0  0  0  0  0  0
    3.8662   -3.7658    0.0000 C   0  0  0  0  0  0  0  0  0  0  0  0
    4.8871   -4.6193    0.0000 O   0  0  0  0  0  0  0  0  0  0  0  0
    4.1005   -2.4547    0.0000 O   0  0  0  0  0  0  0  0  0  0  0  0
    5.3502   -2.0028    0.0000 C   0  0  0  0  0  0  0  0  0  0  0  0
    5.5789   -0.6918    0.0000 C   0  0  0  0  0  0  0  0  0  0  0  0
  1  2  1  0  0  0  0
  2  3  1  0  0  0  0
  2  9  1  0  0  0  0
  2 10  1  0  0  0  0
  3  4  2  0  0  0  0
  3  8  1  0  0  0  0
  4  5  1  0  0  0  0
  5  6  2  0  0  0  0
  6  7  1  0  0  0  0
  7  8  2  0  0  0  0
  9 10  1  0  0  0  0
  9 11  1  0  0  0  0
 11 12  2  0  0  0  0
 11 13  1  0  0  0  0
 13 14  1  0  0  0  0
 14 15  1  0  0  0  0
M  END
>  <DSSTox_RID>
20591

>  <DSSTox_CID>
591

>  <DSSTox_Generic_SID>
20591

>  <DSSTox_FileID>
620_CPDBAS_v5d

>  <STRUCTURE_Formula>
C12H14O3

>  <STRUCTURE_MolecularWeight>
206.2378

>  <STRUCTURE_ChemicalType>
defined organic

>  <STRUCTURE_TestedForm_DefinedOrganic>
parent

>  <STRUCTURE_Shown>
tested chemical

>  <TestSubstance_ChemicalName>
Ethyl methylphenylglycidate

>  <TestSubstance_CASRN>
77-83-8

>  <TestSubstance_Description>
single chemical compound

>  <STRUCTURE_ChemicalName_IUPAC>
ethyl 3-methyl-3-phenyloxirane-2-carboxylate

>  <STRUCTURE_SMILES>
CC1(C2=CC=CC=C2)C(O1)C(=O)OCC

>  <STRUCTURE_Parent_SMILES>
CC1(C2=CC=CC=C2)C(O1)C(=O)OCC

>  <STRUCTURE_InChI>
InChI=1/C12H14O3/c1-3-14-11(13)10-12(2,15-10)9-7-5-4-6-8-9/h4-8,10H,3H2,1-2H3

>  <STRUCTURE_InChIKey>
LQKRYVGRPXFFAV-UHFFFAOYAI

>  <StudyType>
Carcinogenicity

>  <Endpoint>
TD50; Tumor Target Sites

>  <Species>
rat

>  <ActivityOutcome_CPDBAS_Mutagenicity>
inactive

>  <ActivityScore_CPDBAS_Rat>
0

>  <TD50_Rat_Note>
no positive results

>  <TargetSites_Rat_Male>
no positive results

>  <TargetSites_Rat_Female>
no positive results

>  <ActivityOutcome_CPDBAS_Rat>
inactive

>  <ActivityOutcome_CPDBAS_SingleCellCall>
inactive

>  <ActivityOutcome_CPDBAS_MultiCellCall>
inactive

>  <ActivityOutcome_CPDBAS_MultiCellCall_Details>
multisex inactive

>  <ChemicalPage_URL>
http://potency.berkeley.edu/chempages/ETHYL%20METHYLPHENYLGLYCIDATE.html

$$$$



 11 10  0  0  0  0  0  0  0  0999 V2000
    3.9887   -3.4534    0.0000 N   0  0  0  0  0  0  0  0  0  0  0  0
    2.6592   -3.4534    0.0000 C   0  0  0  0  0  0  0  0  0  0  0  0
    1.9915   -4.6046    0.0000 N   0  0  0  0  0  0  0  0  0  0  0  0
    2.6592   -5.7557    0.0000 C   0  0  0  0  0  0  0  0  0  0  0  0
    3.9887   -5.7557    0.0000 C   0  0  0  0  0  0  0  0  0  0  0  0
    0.6619   -4.6046    0.0000 N   0  0  0  0  0  0  0  0  0  0  0  0
    0.0000   -3.4534    0.0000 O   0  0  0  0  0  0  0  0  0  0  0  0
    1.9915   -2.3023    0.0000 N   0  0  0  0  0  0  0  0  0  0  0  0
    2.6592   -1.1511    0.0000 N   0  3  0  0  0  0  0  0  0  0  0  0
    1.9915    0.0000    0.0000 O   0  5  0  0  0  0  0  0  0  0  0  0
    3.9887   -1.1511    0.0000 O   0  0  0  0  0  0  0  0  0  0  0  0
  1  2  2  0  0  0  0
  2  3  1  0  0  0  0
  2  8  1  0  0  0  0
  3  4  1  0  0  0  0
  3  6  1  0  0  0  0
  4  5  1  0  0  0  0
  6  7  2  0  0  0  0
  8  9  1  0  0  0  0
  9 10  1  0  0  0  0
  9 11  2  0  0  0  0
M  END
>  <DSSTox_RID>
20592

>  <DSSTox_CID>
592

>  <DSSTox_Generic_SID>
20592

>  <DSSTox_FileID>
621_CPDBAS_v5d

>  <STRUCTURE_Formula>
C3H7N5O3

>  <STRUCTURE_MolecularWeight>
161.12

>  <STRUCTURE_ChemicalType>
defined organic

>  <STRUCTURE_TestedForm_DefinedOrganic>
parent

>  <STRUCTURE_Shown>
tested chemical

>  <TestSubstance_ChemicalName>
N-Ethyl-N'-nitro-N-nitrosoguanidine

>  <TestSubstance_CASRN>
63885-23-4

>  <TestSubstance_Description>
single chemical compound

>  <STRUCTURE_ChemicalName_IUPAC>
1-ethyl-3-nitro-1-nitrosoguanidine

>  <STRUCTURE_SMILES>
N=C(N(CC)N=O)N[N+]([O-])=O

>  <STRUCTURE_Parent_SMILES>
N=C(N(CC)N=O)N[N+]([O-])=O

>  <STRUCTURE_InChI>
InChI=1/C3H7N5O3/c1-2-7(6-9)3(4)5-8(10)11/h2H2,1H3,(H2,4,5)/f/h4-5H

>  <STRUCTURE_InChIKey>
ZGONASGBWOJHDD-NUMVZRSTCJ

>  <StudyType>
Carcinogenicity

>  <Endpoint>
TD50; Tumor Target Sites

>  <Species>
mouse

>  <TD50_Mouse_mg>
2.84

>  <TD50_Mouse_mmol>
0.0176

>  <ActivityScore_CPDBAS_Mouse>
48

>  <TargetSites_Mouse_BothSexes>
esophagus; small intestine

>  <ActivityOutcome_CPDBAS_Mouse>
active

>  <ActivityOutcome_CPDBAS_SingleCellCall>
active

>  <ActivityOutcome_CPDBAS_MultiCellCall>
active

>  <ActivityOutcome_CPDBAS_MultiCellCall_Details>
multisite active

>  <ChemicalPage_URL>
http://potency.berkeley.edu/chempages/N-ETHYL-N'-NITRO-N-NITROSOGUANIDINE.html

$$$$



  8  7  0  0  0  0  0  0  0  0999 V2000
    3.4566    0.0000    0.0000 N   0  0  0  0  0  0  0  0  0  0  0  0
    2.3044   -0.6637    0.0000 C   0  0  0  0  0  0  0  0  0  0  0  0
    1.1522    0.0000    0.0000 O   0  0  0  0  0  0  0  0  0  0  0  0
    2.3044   -1.9956    0.0000 N   0  0  0  0  0  0  0  0  0  0  0  0
    3.4566   -2.6593    0.0000 C   0  0  0  0  0  0  0  0  0  0  0  0
    4.6088   -1.9956    0.0000 C   0  0  0  0  0  0  0  0  0  0  0  0
    1.1522   -2.6593    0.0000 N   0  0  0  0  0  0  0  0  0  0  0  0
    0.0000   -1.9956    0.0000 O   0  0  0  0  0  0  0  0  0  0  0  0
  1  2  1  0  0  0  0
  2  3  2  0  0  0  0
  2  4  1  0  0  0  0
  4  5  1  0  0  0  0
  4  7  1  0  0  0  0
  5  6  1  0  0  0  0
  7  8  2  0  0  0  0
M  END
>  <DSSTox_RID>
20593

>  <DSSTox_CID>
593

>  <DSSTox_Generic_SID>
20593

>  <DSSTox_FileID>
622_CPDBAS_v5d

>  <STRUCTURE_Formula>
C3H7N3O2

>  <STRUCTURE_MolecularWeight>
117.1066

>  <STRUCTURE_ChemicalType>
defined organic

>  <STRUCTURE_TestedForm_DefinedOrganic>
parent

>  <STRUCTURE_Shown>
tested chemical

>  <TestSubstance_ChemicalName>
1-Ethyl-1-nitrosourea

>  <TestSubstance_CASRN>
759-73-9

>  <TestSubstance_Description>
single chemical compound

>  <STRUCTURE_ChemicalName_IUPAC>
1-ethyl-1-nitrosourea

>  <STRUCTURE_SMILES>
NC(=O)N(CC)N=O

>  <STRUCTURE_Parent_SMILES>
NC(=O)N(CC)N=O

>  <STRUCTURE_InChI>
InChI=1/C3H7N3O2/c1-2-6(5-8)3(4)7/h2H2,1H3,(H2,4,7)/f/h4H2

>  <STRUCTURE_InChIKey>
FUSGACRLAFQQRL-LGEMBHMGCE

>  <StudyType>
Carcinogenicity

>  <Endpoint>
TD50; Tumor Target Sites

>  <Species>
rat

>  <ActivityOutcome_CPDBAS_Mutagenicity>
active

>  <TD50_Rat_mg>
0.948

>  <TD50_Rat_mmol>
0.0081

>  <ActivityScore_CPDBAS_Rat>
47

>  <TD50_Rat_Note>
TD50 is harmonic mean of more than one positive test

>  <TargetSites_Rat_Male>
nervous system; small intestine; thyroid gland

>  <TargetSites_Rat_Female>
nervous system; small intestine

>  <ActivityOutcome_CPDBAS_Rat>
active

>  <ActivityOutcome_CPDBAS_SingleCellCall>
active

>  <ActivityOutcome_CPDBAS_MultiCellCall>
active

>  <ActivityOutcome_CPDBAS_MultiCellCall_Details>
multisite active; multisex active

>  <ChemicalPage_URL>
http://potency.berkeley.edu/chempages/1-ETHYL-1-NITROSOUREA.html

$$$$



 14 14  0  0  1  0  0  0  0  0999 V2000
    1.9922   -3.2816    0.0000 O   0  0  0  0  0  0  0  0  0  0  0  0
    3.3267   -3.2816    0.0000 C   0  0  0  0  0  0  0  0  0  0  0  0
    4.1068   -2.2049    0.0000 C   0  0  1  0  0  0  0  0  0  0  0  0
    3.6942   -0.9413    0.0000 C   0  0  1  0  0  0  0  0  0  0  0  0
    4.6355    0.0000    0.0000 O   0  0  0  0  0  0  0  0  0  0  0  0
    2.4112   -0.5931    0.0000 C   0  0  0  0  0  0  0  0  0  0  0  0
    1.4700   -1.5344    0.0000 O   0  0  0  0  0  0  0  0  0  0  0  0
    5.3705   -2.6176    0.0000 O   0  0  0  0  0  0  0  0  0  0  0  0
    5.3705   -3.9457    0.0000 C   0  0  0  0  0  0  0  0  0  0  0  0
    6.4472   -4.7258    0.0000 O   0  0  0  0  0  0  0  0  0  0  0  0
    4.1068   -4.3583    0.0000 C   0  0  0  0  0  0  0  0  0  0  0  0
    3.6942   -5.6219    0.0000 O   0  0  0  0  0  0  0  0  0  0  0  0
    1.3281   -4.4357    0.0000 C   0  0  0  0  0  0  0  0  0  0  0  0
    0.0000   -4.4357    0.0000 C   0  0  0  0  0  0  0  0  0  0  0  0
  1  2  1  0  0  0  0
  1 13  1  0  0  0  0
  2  3  1  0  0  0  0
  2 11  2  0  0  0  0
  3  4  1  0  0  0  0
  3  8  1  1  0  0  0
  4  5  1  6  0  0  0
  4  6  1  0  0  0  0
  6  7  1  0  0  0  0
  8  9  1  0  0  0  0
  9 10  2  0  0  0  0
  9 11  1  0  0  0  0
 11 12  1  0  0  0  0
 13 14  1  0  0  0  0
M  END
>  <DSSTox_RID>
20595

>  <DSSTox_CID>
595

>  <DSSTox_Generic_SID>
20595

>  <DSSTox_FileID>
624_CPDBAS_v5d

>  <STRUCTURE_Formula>
C8H12O6

>  <STRUCTURE_MolecularWeight>
204.1792

>  <STRUCTURE_ChemicalType>
defined organic

>  <STRUCTURE_TestedForm_DefinedOrganic>
parent

>  <STRUCTURE_Shown>
tested chemical

>  <TestSubstance_ChemicalName>
3-O-Ethylascorbic acid

>  <TestSubstance_CASRN>
86404-04-8

>  <TestSubstance_Description>
single chemical compound

>  <ChemicalNote>
stereochem

>  <STRUCTURE_ChemicalName_IUPAC>
(5R)-5-[(1S)-1,2-dihydroxyethyl]-4-ethoxy-3-hydroxyfuran-2(5H)-one

>  <STRUCTURE_SMILES>
O[C@@H](CO)[C@@H](O1)C(OCC)=C(O)C1=O

>  <STRUCTURE_Parent_SMILES>
O[C@@H](CO)[C@@H](O1)C(OCC)=C(O)C1=O

>  <STRUCTURE_InChI>
InChI=1/C8H12O6/c1-2-13-7-5(11)8(12)14-6(7)4(10)3-9/h4,6,9-11H,2-3H2,1H3/t4-,6+/m0/s1

>  <STRUCTURE_InChIKey>
ZGSCRDSBTNQPMS-UJURSFKZBH

>  <StudyType>
Carcinogenicity

>  <Endpoint>
TD50; Tumor Target Sites

>  <Species>
rat

>  <ActivityScore_CPDBAS_Rat>
0

>  <TD50_Rat_Note>
no positive results

>  <TargetSites_Rat_Female>
no positive results

>  <ActivityOutcome_CPDBAS_Rat>
inactive

>  <ActivityOutcome_CPDBAS_SingleCellCall>
inactive

>  <ChemicalPage_URL>
http://potency.berkeley.edu/chempages/3-O-ETHYLASCORBIC%20ACID.html

$$$$



  8  8  0  0  0  0  0  0  0  0999 V2000
    0.0000    0.0000    0.0000 C   0  0  0  0  0  0  0  0  0  0  0  0
    0.6654   -1.1540    0.0000 C   0  0  0  0  0  0  0  0  0  0  0  0
    1.9962   -1.1540    0.0000 C   0  0  0  0  0  0  0  0  0  0  0  0
    2.6569    0.0000    0.0000 C   0  0  0  0  0  0  0  0  0  0  0  0
    3.9877    0.0000    0.0000 C   0  0  0  0  0  0  0  0  0  0  0  0
    4.6531   -1.1540    0.0000 C   0  0  0  0  0  0  0  0  0  0  0  0
    3.9877   -2.3033    0.0000 C   0  0  0  0  0  0  0  0  0  0  0  0
    2.6569   -2.3033    0.0000 C   0  0  0  0  0  0  0  0  0  0  0  0
  1  2  1  0  0  0  0
  2  3  1  0  0  0  0
  3  4  2  0  0  0  0
  3  8  1  0  0  0  0
  4  5  1  0  0  0  0
  5  6  2  0  0  0  0
  6  7  1  0  0  0  0
  7  8  2  0  0  0  0
M  END
>  <DSSTox_RID>
20596

>  <DSSTox_CID>
596

>  <DSSTox_Generic_SID>
20596

>  <DSSTox_FileID>
625_CPDBAS_v5d

>  <STRUCTURE_Formula>
C8H10

>  <STRUCTURE_MolecularWeight>
106.165

>  <STRUCTURE_ChemicalType>
defined organic

>  <STRUCTURE_TestedForm_DefinedOrganic>
parent

>  <STRUCTURE_Shown>
tested chemical

>  <TestSubstance_ChemicalName>
Ethylbenzene

>  <TestSubstance_CASRN>
100-41-4

>  <TestSubstance_Description>
single chemical compound

>  <STRUCTURE_ChemicalName_IUPAC>
ethylbenzene

>  <STRUCTURE_SMILES>
CCC1=CC=CC=C1

>  <STRUCTURE_Parent_SMILES>
CCC1=CC=CC=C1

>  <STRUCTURE_InChI>
InChI=1/C8H10/c1-2-8-6-4-3-5-7-8/h3-7H,2H2,1H3

>  <STRUCTURE_InChIKey>
YNQLUTRBYVCPMQ-UHFFFAOYAM

>  <StudyType>
Carcinogenicity

>  <Endpoint>
TD50; Tumor Target Sites

>  <Species>
rat; mouse

>  <ActivityOutcome_CPDBAS_Mutagenicity>
inactive

>  <TD50_Rat_mg>
72.6

>  <TD50_Rat_mmol>
0.684

>  <ActivityScore_CPDBAS_Rat>
27

>  <TD50_Rat_Note>
TD50 is harmonic mean of more than one positive test; greater than ten-fold variation among TD50 values for positive results

>  <TargetSites_Rat_Male>
kidney; nasal cavity; Maltoni head cancers; testes

>  <TargetSites_Rat_Female>
Maltoni head cancers; kidney

>  <ActivityOutcome_CPDBAS_Rat>
active

>  <TD50_Mouse_mg>
1600

>  <TD50_Mouse_mmol>
15.1

>  <ActivityScore_CPDBAS_Mouse>
15

>  <TD50_Mouse_Note>
TD50 is harmonic mean of more than one positive test

>  <TargetSites_Mouse_Male>
lung

>  <TargetSites_Mouse_Female>
liver

>  <ActivityOutcome_CPDBAS_Mouse>
active

>  <ActivityOutcome_CPDBAS_SingleCellCall>
active

>  <ActivityOutcome_CPDBAS_MultiCellCall>
active

>  <ActivityOutcome_CPDBAS_MultiCellCall_Details>
multisite active; multisex active; multispecies active

>  <Note_CPDBAS>
Rat modified v5a; Mouse modified v5a

>  <ChemicalPage_URL>
http://potency.berkeley.edu/chempages/ETHYLBENZENE.html

$$$$



  4  3  0  0  0  0  0  0  0  0999 V2000
    1.1513   -0.6638    0.0000 C   0  0  0  0  0  0  0  0  0  0  0  0
    2.3061    0.0000    0.0000 C   0  0  0  0  0  0  0  0  0  0  0  0
    3.4575   -0.6638    0.0000 O   0  0  0  0  0  0  0  0  0  0  0  0
    0.0000    0.0000    0.0000 O   0  0  0  0  0  0  0  0  0  0  0  0
  1  2  1  0  0  0  0
  1  4  1  0  0  0  0
  2  3  1  0  0  0  0
M  END
>  <DSSTox_RID>
20597

>  <DSSTox_CID>
597

>  <DSSTox_Generic_SID>
20597

>  <DSSTox_FileID>
626_CPDBAS_v5d

>  <STRUCTURE_Formula>
C2H6O2

>  <STRUCTURE_MolecularWeight>
62.0678

>  <STRUCTURE_ChemicalType>
defined organic

>  <STRUCTURE_TestedForm_DefinedOrganic>
parent

>  <STRUCTURE_Shown>
tested chemical

>  <TestSubstance_ChemicalName>
Ethylene glycol

>  <TestSubstance_CASRN>
107-21-1

>  <TestSubstance_Description>
single chemical compound

>  <STRUCTURE_ChemicalName_IUPAC>
ethylene glycol

>  <STRUCTURE_SMILES>
C(CO)O

>  <STRUCTURE_Parent_SMILES>
C(CO)O

>  <STRUCTURE_InChI>
InChI=1/C2H6O2/c3-1-2-4/h3-4H,1-2H2

>  <STRUCTURE_InChIKey>
LYCAIKOWRPUZTN-UHFFFAOYAD

>  <StudyType>
Carcinogenicity

>  <Endpoint>
TD50; Tumor Target Sites

>  <Species>
mouse

>  <ActivityOutcome_CPDBAS_Mutagenicity>
inactive

>  <ActivityScore_CPDBAS_Mouse>
0

>  <TD50_Mouse_Note>
no positive results

>  <TargetSites_Mouse_Male>
no positive results

>  <TargetSites_Mouse_Female>
no positive results

>  <ActivityOutcome_CPDBAS_Mouse>
inactive

>  <ActivityOutcome_CPDBAS_SingleCellCall>
inactive

>  <ActivityOutcome_CPDBAS_MultiCellCall>
inactive

>  <ActivityOutcome_CPDBAS_MultiCellCall_Details>
multisex inactive

>  <NTP_TechnicalReport>
TR 413

>  <ChemicalPage_URL>
http://potency.berkeley.edu/chempages/ETHYLENE%20GLYCOL.html

$$$$



  7  7  0  0  0  0  0  0  0  0999 V2000
    2.4049    0.0000    0.0000 C   0  0  0  0  0  0  0  0  0  0  0  0
    3.2944   -0.9883    0.0000 C   0  0  0  0  0  0  0  0  0  0  0  0
    2.6290   -2.1414    0.0000 O   0  0  0  0  0  0  0  0  0  0  0  0
    1.3310   -1.8647    0.0000 S   0  0  0  0  0  0  0  0  0  0  0  0
    1.1893   -0.5403    0.0000 O   0  0  0  0  0  0  0  0  0  0  0  0
    1.1893   -3.1857    0.0000 O   0  0  0  0  0  0  0  0  0  0  0  0
    0.0000   -1.8647    0.0000 O   0  0  0  0  0  0  0  0  0  0  0  0
  1  2  1  0  0  0  0
  1  5  1  0  0  0  0
  2  3  1  0  0  0  0
  3  4  1  0  0  0  0
  4  5  1  0  0  0  0
  4  6  2  0  0  0  0
  4  7  2  0  0  0  0
M  END
>  <DSSTox_RID>
20598

>  <DSSTox_CID>
598

>  <DSSTox_Generic_SID>
20598

>  <DSSTox_FileID>
627_CPDBAS_v5d

>  <STRUCTURE_Formula>
C2H4O4S

>  <STRUCTURE_MolecularWeight>
124.1112

>  <STRUCTURE_ChemicalType>
defined organic

>  <STRUCTURE_TestedForm_DefinedOrganic>
parent

>  <STRUCTURE_Shown>
tested chemical

>  <TestSubstance_ChemicalName>
Ethylene glycol, cyclic sulfate

>  <TestSubstance_CASRN>
1072-53-3

>  <TestSubstance_Description>
single chemical compound

>  <STRUCTURE_ChemicalName_IUPAC>
1,3,2-dioxathiolane 2,2-dioxide

>  <STRUCTURE_SMILES>
C1COS(O1)(=O)=O

>  <STRUCTURE_Parent_SMILES>
C1COS(O1)(=O)=O

>  <STRUCTURE_InChI>
InChI=1/C2H4O4S/c3-7(4)5-1-2-6-7/h1-2H2

>  <STRUCTURE_InChIKey>
ZPFAVCIQZKRBGF-UHFFFAOYAP

>  <StudyType>
Carcinogenicity

>  <Endpoint>
TD50; Tumor Target Sites

>  <Species>
mouse

>  <ActivityOutcome_CPDBAS_Mutagenicity>
inactive

>  <ActivityScore_CPDBAS_Mouse>
0

>  <TD50_Mouse_Note>
no positive results

>  <TargetSites_Mouse_Female>
no positive results

>  <ActivityOutcome_CPDBAS_Mouse>
inactive

>  <ActivityOutcome_CPDBAS_SingleCellCall>
inactive

>  <ChemicalPage_URL>
http://potency.berkeley.edu/chempages/ETHYLENE%20GLYCOL,%20CYCLIC%20SULFATE.html

$$$$



  3  3  0  0  0  0  0  0  0  0999 V2000
    0.0000   -1.1518    0.0000 C   0  0  0  0  0  0  0  0  0  0  0  0
    0.6650    0.0000    0.0000 C   0  0  0  0  0  0  0  0  0  0  0  0
    1.3300   -1.1518    0.0000 N   0  0  0  0  0  0  0  0  0  0  0  0
  1  2  1  0  0  0  0
  1  3  1  0  0  0  0
  2  3  1  0  0  0  0
M  END
>  <DSSTox_RID>
20599

>  <DSSTox_CID>
599

>  <DSSTox_Generic_SID>
20599

>  <DSSTox_FileID>
628_CPDBAS_v5d

>  <STRUCTURE_Formula>
C2H5N

>  <STRUCTURE_MolecularWeight>
43.0678

>  <STRUCTURE_ChemicalType>
defined organic

>  <STRUCTURE_TestedForm_DefinedOrganic>
parent

>  <STRUCTURE_Shown>
tested chemical

>  <TestSubstance_ChemicalName>
Ethyleneimine

>  <TestSubstance_CASRN>
151-56-4

>  <TestSubstance_Description>
single chemical compound

>  <STRUCTURE_ChemicalName_IUPAC>
aziridine

>  <STRUCTURE_SMILES>
C1CN1

>  <STRUCTURE_Parent_SMILES>
C1CN1

>  <STRUCTURE_InChI>
InChI=1/C2H5N/c1-2-3-1/h3H,1-2H2

>  <STRUCTURE_InChIKey>
NOWKCMXCCJGMRR-UHFFFAOYAE

>  <StudyType>
Carcinogenicity

>  <Endpoint>
TD50; Tumor Target Sites

>  <Species>
mouse

>  <ActivityOutcome_CPDBAS_Mutagenicity>
active

>  <TD50_Mouse_mg>
0.377

>  <TD50_Mouse_mmol>
0.00875

>  <ActivityScore_CPDBAS_Mouse>
51

>  <TD50_Mouse_Note>
TD50 is harmonic mean of more than one positive test; harmonic mean of TD50 includes a value for the upper 99% confidence limit

>  <TargetSites_Mouse_Male>
liver; lung

>  <TargetSites_Mouse_Female>
lung

>  <ActivityOutcome_CPDBAS_Mouse>
active

>  <ActivityOutcome_CPDBAS_SingleCellCall>
active

>  <ActivityOutcome_CPDBAS_MultiCellCall>
active

>  <ActivityOutcome_CPDBAS_MultiCellCall_Details>
multisite active; multisex active

>  <Note_CPDBAS>
TD50_Mouse_Note modified v5a

>  <ChemicalPage_URL>
http://potency.berkeley.edu/chempages/ETHYLENE%20IMINE.html

$$$$



  3  3  0  0  0  0  0  0  0  0999 V2000
    0.0000   -1.1518    0.0000 C   0  0  0  0  0  0  0  0  0  0  0  0
    0.6650    0.0000    0.0000 C   0  0  0  0  0  0  0  0  0  0  0  0
    1.3300   -1.1518    0.0000 O   0  0  0  0  0  0  0  0  0  0  0  0
  1  2  1  0  0  0  0
  1  3  1  0  0  0  0
  2  3  1  0  0  0  0
M  END
>  <DSSTox_RID>
20600

>  <DSSTox_CID>
600

>  <DSSTox_Generic_SID>
20600

>  <DSSTox_FileID>
629_CPDBAS_v5d

>  <STRUCTURE_Formula>
C2H4O

>  <STRUCTURE_MolecularWeight>
44.0526

>  <STRUCTURE_ChemicalType>
defined organic

>  <STRUCTURE_TestedForm_DefinedOrganic>
parent

>  <STRUCTURE_Shown>
tested chemical

>  <TestSubstance_ChemicalName>
Ethylene oxide

>  <TestSubstance_CASRN>
75-21-8

>  <TestSubstance_Description>
single chemical compound

>  <STRUCTURE_ChemicalName_IUPAC>
oxirane

>  <STRUCTURE_SMILES>
C1CO1

>  <STRUCTURE_Parent_SMILES>
C1CO1

>  <STRUCTURE_InChI>
InChI=1/C2H4O/c1-2-3-1/h1-2H2

>  <STRUCTURE_InChIKey>
IAYPIBMASNFSPL-UHFFFAOYAX

>  <StudyType>
Carcinogenicity

>  <Endpoint>
TD50; Tumor Target Sites

>  <Species>
rat; mouse

>  <ActivityOutcome_CPDBAS_Mutagenicity>
active

>  <TD50_Rat_mg>
21.3

>  <TD50_Rat_mmol>
0.484

>  <ActivityScore_CPDBAS_Rat>
29

>  <TD50_Rat_Note>
TD50 is harmonic mean of more than one positive test; greater than ten-fold variation among TD50 values for positive results

>  <TargetSites_Rat_Male>
hematopoietic system; nervous system; peritoneal cavity

>  <TargetSites_Rat_Female>
nervous system; stomach

>  <ActivityOutcome_CPDBAS_Rat>
active

>  <TD50_Mouse_mg>
63.7

>  <TD50_Mouse_mmol>
1.45

>  <ActivityScore_CPDBAS_Mouse>
26

>  <TD50_Mouse_Note>
TD50 is harmonic mean of more than one positive test

>  <TargetSites_Mouse_Male>
harderian gland; lung

>  <TargetSites_Mouse_Female>
harderian gland; hematopoietic system; lung; mammary gland; uterus

>  <ActivityOutcome_CPDBAS_Mouse>
active

>  <ActivityOutcome_CPDBAS_SingleCellCall>
active

>  <ActivityOutcome_CPDBAS_MultiCellCall>
active

>  <ActivityOutcome_CPDBAS_MultiCellCall_Details>
multisite active; multisex active; multispecies active

>  <NTP_TechnicalReport>
TR 326; additional results included in CPDB

>  <ChemicalPage_URL>
http://potency.berkeley.edu/chempages/ETHYLENE%20OXIDE.html

$$$$



  6  6  0  0  0  0  0  0  0  0999 V2000
    0.0000   -1.0738    0.0000 S   0  0  0  0  0  0  0  0  0  0  0  0
    1.3304   -1.0738    0.0000 C   0  0  0  0  0  0  0  0  0  0  0  0
    2.1104    0.0000    0.0000 N   0  0  0  0  0  0  0  0  0  0  0  0
    3.3767   -0.4086    0.0000 C   0  0  0  0  0  0  0  0  0  0  0  0
    3.3767   -1.7390    0.0000 C   0  0  0  0  0  0  0  0  0  0  0  0
    2.1104   -2.1509    0.0000 N   0  0  0  0  0  0  0  0  0  0  0  0
  1  2  2  0  0  0  0
  2  3  1  0  0  0  0
  2  6  1  0  0  0  0
  3  4  1  0  0  0  0
  4  5  1  0  0  0  0
  5  6  1  0  0  0  0
M  END
>  <DSSTox_RID>
20601

>  <DSSTox_CID>
601

>  <DSSTox_Generic_SID>
20601

>  <DSSTox_FileID>
630_CPDBAS_v5d

>  <STRUCTURE_Formula>
C3H6N2S

>  <STRUCTURE_MolecularWeight>
102.1581

>  <STRUCTURE_ChemicalType>
defined organic

>  <STRUCTURE_TestedForm_DefinedOrganic>
parent

>  <STRUCTURE_Shown>
tested chemical

>  <TestSubstance_ChemicalName>
Ethylene thiourea

>  <TestSubstance_CASRN>
96-45-7

>  <TestSubstance_Description>
single chemical compound

>  <STRUCTURE_ChemicalName_IUPAC>
imidazolidine-2-thione

>  <STRUCTURE_SMILES>
S=C1NCCN1

>  <STRUCTURE_Parent_SMILES>
S=C1NCCN1

>  <STRUCTURE_InChI>
InChI=1/C3H6N2S/c6-3-4-1-2-5-3/h1-2H2,(H2,4,5,6)/f/h4-5H

>  <STRUCTURE_InChIKey>
PDQAZBWRQCGBEV-NUMVZRSTCH

>  <StudyType>
Carcinogenicity

>  <Endpoint>
TD50; Tumor Target Sites

>  <Species>
rat; mouse

>  <ActivityOutcome_CPDBAS_Mutagenicity>
active

>  <TD50_Rat_mg>
8.13

>  <TD50_Rat_mmol>
0.0796

>  <ActivityScore_CPDBAS_Rat>
37

>  <TD50_Rat_Note>
TD50 is harmonic mean of more than one positive test; greater than ten-fold variation among TD50 values for positive results

>  <TargetSites_Rat_Male>
thyroid gland

>  <TargetSites_Rat_Female>
thyroid gland

>  <TargetSites_Rat_BothSexes>
liver

>  <ActivityOutcome_CPDBAS_Rat>
active

>  <TD50_Mouse_mg>
23.5

>  <TD50_Mouse_mmol>
0.23

>  <ActivityScore_CPDBAS_Mouse>
35

>  <TD50_Mouse_Note>
TD50 is harmonic mean of more than one positive test

>  <TargetSites_Mouse_Male>
liver; pituitary gland; thyroid gland

>  <TargetSites_Mouse_Female>
liver; pituitary gland; thyroid gland

>  <ActivityOutcome_CPDBAS_Mouse>
active

>  <ActivityOutcome_CPDBAS_SingleCellCall>
active

>  <ActivityOutcome_CPDBAS_MultiCellCall>
active

>  <ActivityOutcome_CPDBAS_MultiCellCall_Details>
multisite active; multisex active; multispecies active

>  <Note_CPDBAS>
TD50_Rat modified v3a

>  <NTP_TechnicalReport>
TR 388; additional results included in CPDB

>  <ChemicalPage_URL>
http://potency.berkeley.edu/chempages/ETHYLENE%20THIOUREA.html

$$$$



  6  6  0  0  0  0  0  0  0  0999 V2000
    0.0000   -1.0738    0.0000 O   0  0  0  0  0  0  0  0  0  0  0  0
    1.3304   -1.0738    0.0000 C   0  0  0  0  0  0  0  0  0  0  0  0
    2.1104    0.0000    0.0000 N   0  0  0  0  0  0  0  0  0  0  0  0
    3.3767   -0.4086    0.0000 C   0  0  0  0  0  0  0  0  0  0  0  0
    3.3767   -1.7390    0.0000 C   0  0  0  0  0  0  0  0  0  0  0  0
    2.1104   -2.1509    0.0000 N   0  0  0  0  0  0  0  0  0  0  0  0
  1  2  2  0  0  0  0
  2  3  1  0  0  0  0
  2  6  1  0  0  0  0
  3  4  1  0  0  0  0
  4  5  1  0  0  0  0
  5  6  1  0  0  0  0
M  END
>  <DSSTox_RID>
20602

>  <DSSTox_CID>
602

>  <DSSTox_Generic_SID>
20602

>  <DSSTox_FileID>
631_CPDBAS_v5d

>  <STRUCTURE_Formula>
C3H6N2O

>  <STRUCTURE_MolecularWeight>
86.0925

>  <STRUCTURE_ChemicalType>
defined organic

>  <STRUCTURE_TestedForm_DefinedOrganic>
parent

>  <STRUCTURE_Shown>
tested chemical

>  <TestSubstance_ChemicalName>
Ethylene urea

>  <TestSubstance_CASRN>
120-93-4

>  <TestSubstance_Description>
single chemical compound

>  <STRUCTURE_ChemicalName_IUPAC>
imidazolidin-2-one

>  <STRUCTURE_SMILES>
O=C1NCCN1

>  <STRUCTURE_Parent_SMILES>
O=C1NCCN1

>  <STRUCTURE_InChI>
InChI=1/C3H6N2O/c6-3-4-1-2-5-3/h1-2H2,(H2,4,5,6)/f/h4-5H

>  <STRUCTURE_InChIKey>
YAMHXTCMCPHKLN-NUMVZRSTCR

>  <StudyType>
Carcinogenicity

>  <Endpoint>
TD50; Tumor Target Sites

>  <Species>
mouse

>  <ActivityScore_CPDBAS_Mouse>
0

>  <TD50_Mouse_Note>
no positive results

>  <TargetSites_Mouse_Male>
no positive results

>  <TargetSites_Mouse_Female>
no positive results

>  <ActivityOutcome_CPDBAS_Mouse>
inactive

>  <ActivityOutcome_CPDBAS_SingleCellCall>
inactive

>  <ActivityOutcome_CPDBAS_MultiCellCall>
inactive

>  <ActivityOutcome_CPDBAS_MultiCellCall_Details>
multisex inactive

>  <ChemicalPage_URL>
http://potency.berkeley.edu/chempages/ETHYLENE%20UREA.html

$$$$



 10 12  0  0  0  0  0  0  0  0999 V2000
    5.8059    0.0000    0.0000 O   0  0  0  0  0  0  0  0  0  0  0  0
    4.4764    0.0000    0.0000 C   0  0  3  0  0  0  0  0  0  0  0  0
    5.1383   -1.1554    0.0000 C   0  0  3  0  0  0  0  0  0  0  0  0
    4.4764   -2.3050    0.0000 C   0  0  0  0  0  0  0  0  0  0  0  0
    3.1468   -2.3050    0.0000 C   0  0  0  0  0  0  0  0  0  0  0  0
    2.4791   -1.1554    0.0000 C   0  0  3  0  0  0  0  0  0  0  0  0
    3.1468    0.0000    0.0000 C   0  0  0  0  0  0  0  0  0  0  0  0
    1.1496   -1.1554    0.0000 C   0  0  3  0  0  0  0  0  0  0  0  0
    0.0000   -1.8173    0.0000 C   0  0  0  0  0  0  0  0  0  0  0  0
    0.0000   -0.4877    0.0000 O   0  0  0  0  0  0  0  0  0  0  0  0
  1  2  1  0  0  0  0
  1  3  1  0  0  0  0
  2  3  1  0  0  0  0
  2  7  1  0  0  0  0
  3  4  1  0  0  0  0
  4  5  1  0  0  0  0
  5  6  1  0  0  0  0
  6  7  1  0  0  0  0
  6  8  1  0  0  0  0
  8  9  1  0  0  0  0
  8 10  1  0  0  0  0
  9 10  1  0  0  0  0
M  END
>  <DSSTox_RID>
20604

>  <DSSTox_CID>
604

>  <DSSTox_Generic_SID>
20604

>  <DSSTox_FileID>
633_CPDBAS_v5d

>  <STRUCTURE_Formula>
C8H12O2

>  <STRUCTURE_MolecularWeight>
140.1797

>  <STRUCTURE_ChemicalType>
defined organic

>  <STRUCTURE_TestedForm_DefinedOrganic>
parent

>  <STRUCTURE_Shown>
tested chemical

>  <TestSubstance_ChemicalName>
1-Ethyleneoxy-3,4-epoxycyclohexane

>  <TestSubstance_CASRN>
106-87-6

>  <TestSubstance_Description>
single chemical compound

>  <STRUCTURE_ChemicalName_IUPAC>
3-oxiran-2-yl-7-oxabicyclo[4.1.0]heptane

>  <STRUCTURE_SMILES>
O1C2C1CCC(C2)C1CO1

>  <STRUCTURE_Parent_SMILES>
O1C2C1CCC(C2)C1CO1

>  <STRUCTURE_InChI>
InChI=1/C8H12O2/c1-2-6-7(10-6)3-5(1)8-4-9-8/h5-8H,1-4H2

>  <STRUCTURE_InChIKey>
OECTYKWYRCHAKR-UHFFFAOYAP

>  <StudyType>
Carcinogenicity

>  <Endpoint>
TD50; Tumor Target Sites

>  <Species>
rat

>  <ActivityOutcome_CPDBAS_Mutagenicity>
active

>  <ActivityScore_CPDBAS_Rat>
0

>  <TD50_Rat_Note>
no positive results

>  <TargetSites_Rat_Female>
no positive results

>  <ActivityOutcome_CPDBAS_Rat>
inactive

>  <ActivityOutcome_CPDBAS_SingleCellCall>
inactive

>  <ChemicalPage_URL>
http://potency.berkeley.edu/chempages/1-ETHYLENEOXY-3,4-EPOXYCYCLOHEXANE.html

$$$$



  9  8  0  0  0  0  0  0  0  0999 V2000
    0.0000   -4.6059    0.0000 C   0  0  0  0  0  0  0  0  0  0  0  0
    0.6657   -3.4484    0.0000 C   0  0  0  0  0  0  0  0  0  0  0  0
    1.9971   -3.4484    0.0000 C   0  0  0  0  0  0  0  0  0  0  0  0
    2.6628   -2.3089    0.0000 C   0  0  0  0  0  0  0  0  0  0  0  0
    4.0001   -2.3089    0.0000 C   0  0  3  0  0  0  0  0  0  0  0  0
    4.6658   -3.4484    0.0000 C   0  0  0  0  0  0  0  0  0  0  0  0
    4.6658   -1.1515    0.0000 C   0  0  0  0  0  0  0  0  0  0  0  0
    4.0001    0.0000    0.0000 C   0  0  0  0  0  0  0  0  0  0  0  0
    5.9972   -3.4484    0.0000 O   0  0  0  0  0  0  0  0  0  0  0  0
  1  2  1  0  0  0  0
  2  3  1  0  0  0  0
  3  4  1  0  0  0  0
  4  5  1  0  0  0  0
  5  6  1  0  0  0  0
  5  7  1  0  0  0  0
  6  9  1  0  0  0  0
  7  8  1  0  0  0  0
M  END
>  <DSSTox_RID>
20605

>  <DSSTox_CID>
605

>  <DSSTox_Generic_SID>
20605

>  <DSSTox_FileID>
634_CPDBAS_v5d

>  <STRUCTURE_Formula>
C8H18O

>  <STRUCTURE_MolecularWeight>
130.2279

>  <STRUCTURE_ChemicalType>
defined organic

>  <STRUCTURE_TestedForm_DefinedOrganic>
parent

>  <STRUCTURE_Shown>
tested chemical

>  <TestSubstance_ChemicalName>
2-Ethylhexanol

>  <TestSubstance_CASRN>
104-76-7

>  <TestSubstance_Description>
single chemical compound

>  <STRUCTURE_ChemicalName_IUPAC>
2-ethylhexan-1-ol

>  <STRUCTURE_SMILES>
CCC(CCCC)CO

>  <STRUCTURE_Parent_SMILES>
CCC(CCCC)CO

>  <STRUCTURE_InChI>
InChI=1/C8H18O/c1-3-5-6-8(4-2)7-9/h8-9H,3-7H2,1-2H3

>  <STRUCTURE_InChIKey>
YIWUKEYIRIRTPP-UHFFFAOYAU

>  <StudyType>
Carcinogenicity

>  <Endpoint>
TD50; Tumor Target Sites

>  <Species>
rat; mouse

>  <ActivityOutcome_CPDBAS_Mutagenicity>
inactive

>  <ActivityScore_CPDBAS_Rat>
0

>  <TD50_Rat_Note>
no positive results

>  <TargetSites_Rat_Male>
no positive results

>  <TargetSites_Rat_Female>
no positive results

>  <ActivityOutcome_CPDBAS_Rat>
inactive

>  <TD50_Mouse_mg>
1680

>  <TD50_Mouse_mmol>
12.9

>  <ActivityScore_CPDBAS_Mouse>
16

>  <TargetSites_Mouse_Male>
no positive results

>  <TargetSites_Mouse_Female>
liver

>  <ActivityOutcome_CPDBAS_Mouse>
active

>  <ActivityOutcome_CPDBAS_SingleCellCall>
active

>  <Note_CPDBAS>
Rat added v2a; Mouse added v2a

>  <ChemicalPage_URL>
http://potency.berkeley.edu/chempages/2-ETHYLHEXANOL.html

$$$$



 26 25  0  0  0  0  0  0  0  0999 V2000
   14.9694   -5.9739    0.0000 C   0  0  0  0  0  0  0  0  0  0  0  0
   16.1089   -5.3178    0.0000 C   0  0  0  0  0  0  0  0  0  0  0  0
   16.1089   -3.9884    0.0000 C   0  0  3  0  0  0  0  0  0  0  0  0
   14.9694   -3.3150    0.0000 C   0  0  0  0  0  0  0  0  0  0  0  0
   13.8126   -3.9884    0.0000 O   0  0  0  0  0  0  0  0  0  0  0  0
   12.6558   -3.3150    0.0000 C   0  0  0  0  0  0  0  0  0  0  0  0
   12.6558   -1.9856    0.0000 O   0  0  0  0  0  0  0  0  0  0  0  0
   11.5162   -3.9884    0.0000 C   0  0  0  0  0  0  0  0  0  0  0  0
   10.3594   -3.3150    0.0000 C   0  0  0  0  0  0  0  0  0  0  0  0
    9.2026   -3.9884    0.0000 C   0  0  0  0  0  0  0  0  0  0  0  0
    8.0631   -3.3150    0.0000 C   0  0  0  0  0  0  0  0  0  0  0  0
    6.9063   -3.9884    0.0000 C   0  0  0  0  0  0  0  0  0  0  0  0
    5.7495   -3.3150    0.0000 O   0  0  0  0  0  0  0  0  0  0  0  0
    6.9063   -5.3178    0.0000 O   0  0  0  0  0  0  0  0  0  0  0  0
    5.7495   -5.9739    0.0000 C   0  0  0  0  0  0  0  0  0  0  0  0
    4.6099   -5.3178    0.0000 C   0  0  3  0  0  0  0  0  0  0  0  0
    3.4531   -5.9739    0.0000 C   0  0  0  0  0  0  0  0  0  0  0  0
    2.2963   -5.3178    0.0000 C   0  0  0  0  0  0  0  0  0  0  0  0
    1.1568   -5.9739    0.0000 C   0  0  0  0  0  0  0  0  0  0  0  0
    0.0000   -5.3178    0.0000 C   0  0  0  0  0  0  0  0  0  0  0  0
    4.6099   -3.9884    0.0000 C   0  0  0  0  0  0  0  0  0  0  0  0
    3.4531   -3.3150    0.0000 C   0  0  0  0  0  0  0  0  0  0  0  0
   17.2657   -3.3150    0.0000 C   0  0  0  0  0  0  0  0  0  0  0  0
   17.2657   -1.9856    0.0000 C   0  0  0  0  0  0  0  0  0  0  0  0
   16.1089   -1.3295    0.0000 C   0  0  0  0  0  0  0  0  0  0  0  0
   16.1089    0.0000    0.0000 C   0  0  0  0  0  0  0  0  0  0  0  0
  1  2  1  0  0  0  0
  2  3  1  0  0  0  0
  3  4  1  0  0  0  0
  3 23  1  0  0  0  0
  4  5  1  0  0  0  0
  5  6  1  0  0  0  0
  6  7  2  0  0  0  0
  6  8  1  0  0  0  0
  8  9  1  0  0  0  0
  9 10  1  0  0  0  0
 10 11  1  0  0  0  0
 11 12  1  0  0  0  0
 12 13  2  0  0  0  0
 12 14  1  0  0  0  0
 14 15  1  0  0  0  0
 15 16  1  0  0  0  0
 16 17  1  0  0  0  0
 16 21  1  0  0  0  0
 17 18  1  0  0  0  0
 18 19  1  0  0  0  0
 19 20  1  0  0  0  0
 21 22  1  0  0  0  0
 23 24  1  0  0  0  0
 24 25  1  0  0  0  0
 25 26  1  0  0  0  0
M  END
>  <DSSTox_RID>
20606

>  <DSSTox_CID>
606

>  <DSSTox_Generic_SID>
20606

>  <DSSTox_FileID>
635_CPDBAS_v5d

>  <STRUCTURE_Formula>
C22H42O4

>  <STRUCTURE_MolecularWeight>
370.5665

>  <STRUCTURE_ChemicalType>
defined organic

>  <STRUCTURE_TestedForm_DefinedOrganic>
parent

>  <STRUCTURE_Shown>
tested chemical

>  <TestSubstance_ChemicalName>
di(2-Ethylhexyl)adipate

>  <TestSubstance_CASRN>
103-23-1

>  <TestSubstance_Description>
single chemical compound

>  <STRUCTURE_ChemicalName_IUPAC>
bis(2-ethylhexyl) adipate

>  <STRUCTURE_SMILES>
CCC(COC(=O)CCCCC(=O)OCC(CCCC)CC)CCCC

>  <STRUCTURE_Parent_SMILES>
CCC(COC(=O)CCCCC(=O)OCC(CCCC)CC)CCCC

>  <STRUCTURE_InChI>
InChI=1/C22H42O4/c1-5-9-13-19(7-3)17-25-21(23)15-11-12-16-22(24)26-18-20(8-4)14-10-6-2/h19-20H,5-18H2,1-4H3

>  <STRUCTURE_InChIKey>
SAOKZLXYCUGLFA-UHFFFAOYAQ

>  <StudyType>
Carcinogenicity

>  <Endpoint>
TD50; Tumor Target Sites

>  <Species>
rat; mouse

>  <ActivityOutcome_CPDBAS_Mutagenicity>
inactive

>  <ActivityScore_CPDBAS_Rat>
0

>  <TD50_Rat_Note>
no positive results

>  <TargetSites_Rat_Male>
no positive results

>  <TargetSites_Rat_Female>
no positive results

>  <ActivityOutcome_CPDBAS_Rat>
inactive

>  <TD50_Mouse_mg>
3880

>  <TD50_Mouse_mmol>
10.5

>  <ActivityScore_CPDBAS_Mouse>
17

>  <TD50_Mouse_Note>
TD50 is harmonic mean of more than one positive test

>  <TargetSites_Mouse_Male>
liver

>  <TargetSites_Mouse_Female>
liver

>  <ActivityOutcome_CPDBAS_Mouse>
active

>  <ActivityOutcome_CPDBAS_SingleCellCall>
active

>  <ActivityOutcome_CPDBAS_MultiCellCall>
active

>  <ActivityOutcome_CPDBAS_MultiCellCall_Details>
multisex active

>  <NTP_TechnicalReport>
TR 212

>  <ChemicalPage_URL>
http://potency.berkeley.edu/chempages/DI(2-ETHYLHEXYL)ADIPATE.html

$$$$



 28 28  0  0  0  0  0  0  0  0999 V2000
    7.9814   -3.4555    0.0000 O   0  0  0  0  0  0  0  0  0  0  0  0
    7.3086   -4.6023    0.0000 C   0  0  0  0  0  0  0  0  0  0  0  0
    7.9814   -5.7490    0.0000 C   0  0  0  0  0  0  0  0  0  0  0  0
    9.3116   -5.7490    0.0000 C   0  0  0  0  0  0  0  0  0  0  0  0
    9.9691   -6.9111    0.0000 C   0  0  0  0  0  0  0  0  0  0  0  0
    9.3116   -8.0578    0.0000 C   0  0  0  0  0  0  0  0  0  0  0  0
    7.9814   -8.0578    0.0000 C   0  0  0  0  0  0  0  0  0  0  0  0
    7.3086   -6.9111    0.0000 C   0  0  0  0  0  0  0  0  0  0  0  0
    9.9691   -4.6023    0.0000 C   0  0  0  0  0  0  0  0  0  0  0  0
   11.2993   -4.6023    0.0000 O   0  0  0  0  0  0  0  0  0  0  0  0
    9.3116   -3.4555    0.0000 O   0  0  0  0  0  0  0  0  0  0  0  0
    9.9691   -2.2935    0.0000 C   0  0  0  0  0  0  0  0  0  0  0  0
   11.2993   -2.2935    0.0000 C   0  0  3  0  0  0  0  0  0  0  0  0
   11.9721   -1.1467    0.0000 C   0  0  0  0  0  0  0  0  0  0  0  0
   13.3023   -1.1467    0.0000 C   0  0  0  0  0  0  0  0  0  0  0  0
   13.9598    0.0000    0.0000 C   0  0  0  0  0  0  0  0  0  0  0  0
   15.2900    0.0000    0.0000 C   0  0  0  0  0  0  0  0  0  0  0  0
   11.9721   -3.4555    0.0000 C   0  0  0  0  0  0  0  0  0  0  0  0
   13.3023   -3.4555    0.0000 C   0  0  0  0  0  0  0  0  0  0  0  0
    5.9784   -4.6023    0.0000 O   0  0  0  0  0  0  0  0  0  0  0  0
    5.3209   -3.4555    0.0000 C   0  0  0  0  0  0  0  0  0  0  0  0
    3.9907   -3.4555    0.0000 C   0  0  3  0  0  0  0  0  0  0  0  0
    3.3179   -4.6023    0.0000 C   0  0  0  0  0  0  0  0  0  0  0  0
    1.9877   -4.6023    0.0000 C   0  0  0  0  0  0  0  0  0  0  0  0
    1.3302   -5.7490    0.0000 C   0  0  0  0  0  0  0  0  0  0  0  0
    0.0000   -5.7490    0.0000 C   0  0  0  0  0  0  0  0  0  0  0  0
    3.3179   -2.2935    0.0000 C   0  0  0  0  0  0  0  0  0  0  0  0
    1.9877   -2.2935    0.0000 C   0  0  0  0  0  0  0  0  0  0  0  0
  1  2  2  0  0  0  0
  2  3  1  0  0  0  0
  2 20  1  0  0  0  0
  3  4  2  0  0  0  0
  3  8  1  0  0  0  0
  4  5  1  0  0  0  0
  4  9  1  0  0  0  0
  5  6  2  0  0  0  0
  6  7  1  0  0  0  0
  7  8  2  0  0  0  0
  9 10  2  0  0  0  0
  9 11  1  0  0  0  0
 11 12  1  0  0  0  0
 12 13  1  0  0  0  0
 13 14  1  0  0  0  0
 13 18  1  0  0  0  0
 14 15  1  0  0  0  0
 15 16  1  0  0  0  0
 16 17  1  0  0  0  0
 18 19  1  0  0  0  0
 20 21  1  0  0  0  0
 21 22  1  0  0  0  0
 22 23  1  0  0  0  0
 22 27  1  0  0  0  0
 23 24  1  0  0  0  0
 24 25  1  0  0  0  0
 25 26  1  0  0  0  0
 27 28  1  0  0  0  0
M  END
>  <DSSTox_RID>
20607

>  <DSSTox_CID>
607

>  <DSSTox_Generic_SID>
20607

>  <DSSTox_FileID>
636_CPDBAS_v5d

>  <STRUCTURE_Formula>
C24H38O4

>  <STRUCTURE_MolecularWeight>
390.5561

>  <STRUCTURE_ChemicalType>
defined organic

>  <STRUCTURE_TestedForm_DefinedOrganic>
parent

>  <STRUCTURE_Shown>
tested chemical

>  <TestSubstance_ChemicalName>
di(2-Ethylhexyl)phthalate

>  <TestSubstance_CASRN>
117-81-7

>  <TestSubstance_Description>
single chemical compound

>  <STRUCTURE_ChemicalName_IUPAC>
bis(2-ethylhexyl) phthalate

>  <STRUCTURE_SMILES>
O=C(C1=C(C=CC=C1)C(=O)OCC(CCCC)CC)OCC(CCCC)CC

>  <STRUCTURE_Parent_SMILES>
O=C(C1=C(C=CC=C1)C(=O)OCC(CCCC)CC)OCC(CCCC)CC

>  <STRUCTURE_InChI>
InChI=1/C24H38O4/c1-5-9-13-19(7-3)17-27-23(25)21-15-11-12-16-22(21)24(26)28-18-20(8-4)14-10-6-2/h11-12,15-16,19-20H,5-10,13-14,17-18H2,1-4H3

>  <STRUCTURE_InChIKey>
BJQHLKABXJIVAM-UHFFFAOYAB

>  <StudyType>
Carcinogenicity

>  <Endpoint>
TD50; Tumor Target Sites

>  <Species>
rat; mouse

>  <ActivityOutcome_CPDBAS_Mutagenicity>
inactive

>  <TD50_Rat_mg>
716

>  <TD50_Rat_mmol>
1.83

>  <ActivityScore_CPDBAS_Rat>
23

>  <TD50_Rat_Note>
TD50 is harmonic mean of more than one positive test

>  <TargetSites_Rat_Male>
liver

>  <TargetSites_Rat_Female>
liver

>  <ActivityOutcome_CPDBAS_Rat>
active

>  <TD50_Mouse_mg>
700

>  <TD50_Mouse_mmol>
1.79

>  <ActivityScore_CPDBAS_Mouse>
25

>  <TD50_Mouse_Note>
TD50 is harmonic mean of more than one positive test

>  <TargetSites_Mouse_Male>
liver

>  <TargetSites_Mouse_Female>
liver

>  <ActivityOutcome_CPDBAS_Mouse>
active

>  <ActivityOutcome_CPDBAS_SingleCellCall>
active

>  <ActivityOutcome_CPDBAS_MultiCellCall>
active

>  <ActivityOutcome_CPDBAS_MultiCellCall_Details>
multisex active; multispecies active

>  <Note_CPDBAS>
TD50_Rat modified v2a; TD50_Mouse modified v2a

>  <NTP_TechnicalReport>
TR 217

>  <ChemicalPage_URL>
http://potency.berkeley.edu/chempages/DI(2-ETHYLHEXYL)PHTHALATE.html

$$$$



 11 10  0  0  0  0  0  0  0  0999 V2000
    2.2999   -3.9852    0.0000 O   0  0  0  0  0  0  0  0  0  0  0  0
    2.2999   -2.6591    0.0000 C   0  0  0  0  0  0  0  0  0  0  0  0
    1.1534   -1.9891    0.0000 N   0  0  0  0  0  0  0  0  0  0  0  0
    1.1534   -0.6630    0.0000 C   0  0  0  0  0  0  0  0  0  0  0  0
    0.0000    0.0000    0.0000 C   0  0  0  0  0  0  0  0  0  0  0  0
    0.0000   -2.6591    0.0000 N   0  0  0  0  0  0  0  0  0  0  0  0
    0.0000   -3.9852    0.0000 O   0  0  0  0  0  0  0  0  0  0  0  0
    3.4534   -1.9891    0.0000 N   0  0  0  0  0  0  0  0  0  0  0  0
    4.6068   -2.6591    0.0000 C   0  0  0  0  0  0  0  0  0  0  0  0
    5.7533   -1.9891    0.0000 C   0  0  0  0  0  0  0  0  0  0  0  0
    6.9067   -2.6591    0.0000 O   0  0  0  0  0  0  0  0  0  0  0  0
  1  2  2  0  0  0  0
  2  3  1  0  0  0  0
  2  8  1  0  0  0  0
  3  4  1  0  0  0  0
  3  6  1  0  0  0  0
  4  5  1  0  0  0  0
  6  7  2  0  0  0  0
  8  9  1  0  0  0  0
  9 10  1  0  0  0  0
 10 11  1  0  0  0  0
M  END
>  <DSSTox_RID>
20609

>  <DSSTox_CID>
609

>  <DSSTox_Generic_SID>
20609

>  <DSSTox_FileID>
638_CPDBAS_v5d

>  <STRUCTURE_Formula>
C5H11N3O3

>  <STRUCTURE_MolecularWeight>
161.1602

>  <STRUCTURE_ChemicalType>
defined organic

>  <STRUCTURE_TestedForm_DefinedOrganic>
parent

>  <STRUCTURE_Shown>
tested chemical

>  <TestSubstance_ChemicalName>
1-Ethylnitroso-3-(2-hydroxyethyl)-urea

>  <TestSubstance_CASRN>
96724-44-6

>  <TestSubstance_Description>
single chemical compound

>  <STRUCTURE_ChemicalName_IUPAC>
1-ethyl-3-(2-hydroxyethyl)-1-nitrosourea

>  <STRUCTURE_SMILES>
O=C(N(CC)N=O)NCCO

>  <STRUCTURE_Parent_SMILES>
O=C(N(CC)N=O)NCCO

>  <STRUCTURE_InChI>
InChI=1/C5H11N3O3/c1-2-8(7-11)5(10)6-3-4-9/h9H,2-4H2,1H3,(H,6,10)/f/h6H

>  <STRUCTURE_InChIKey>
RXXXJEQCRPLSOQ-BRMMOCHJCH

>  <StudyType>
Carcinogenicity

>  <Endpoint>
TD50; Tumor Target Sites

>  <Species>
rat; hamster

>  <TD50_Rat_mg>
0.522

>  <TD50_Rat_mmol>
0.00324

>  <ActivityScore_CPDBAS_Rat>
51

>  <TD50_Rat_Note>
TD50 is harmonic mean of more than one positive test

>  <TargetSites_Rat_Male>
skin

>  <TargetSites_Rat_Female>
mammary gland; skin; uterus

>  <ActivityOutcome_CPDBAS_Rat>
active

>  <TD50_Hamster_mg>
1.04

>  <TD50_Hamster_mmol>
0.00645

>  <ActivityScore_CPDBAS_Hamster>
79

>  <TargetSites_Hamster_Female>
stomach; uterus; vascular system

>  <ActivityOutcome_CPDBAS_Hamster>
active

>  <ActivityOutcome_CPDBAS_SingleCellCall>
active

>  <ActivityOutcome_CPDBAS_MultiCellCall>
active

>  <ActivityOutcome_CPDBAS_MultiCellCall_Details>
multisite active; multisex active; multispecies active

>  <ChemicalPage_URL>
http://potency.berkeley.edu/chempages/1-ETHYLNITROSO-3-(2-HYDROXYETHYL)UREA.html

$$$$



 12 11  0  0  0  0  0  0  0  0999 V2000
    2.3006   -3.9862    0.0000 O   0  0  0  0  0  0  0  0  0  0  0  0
    2.3006   -2.6598    0.0000 C   0  0  0  0  0  0  0  0  0  0  0  0
    1.1537   -1.9897    0.0000 N   0  0  0  0  0  0  0  0  0  0  0  0
    1.1537   -0.6632    0.0000 C   0  0  0  0  0  0  0  0  0  0  0  0
    0.0000    0.0000    0.0000 C   0  0  0  0  0  0  0  0  0  0  0  0
    0.0000   -2.6598    0.0000 N   0  0  0  0  0  0  0  0  0  0  0  0
    0.0000   -3.9862    0.0000 O   0  0  0  0  0  0  0  0  0  0  0  0
    3.4543   -1.9897    0.0000 N   0  0  0  0  0  0  0  0  0  0  0  0
    4.6080   -2.6598    0.0000 C   0  0  0  0  0  0  0  0  0  0  0  0
    5.7548   -1.9897    0.0000 C   0  0  0  0  0  0  0  0  0  0  0  0
    5.7548   -0.6632    0.0000 O   0  0  0  0  0  0  0  0  0  0  0  0
    6.9086   -2.6598    0.0000 C   0  0  0  0  0  0  0  0  0  0  0  0
  1  2  2  0  0  0  0
  2  3  1  0  0  0  0
  2  8  1  0  0  0  0
  3  4  1  0  0  0  0
  3  6  1  0  0  0  0
  4  5  1  0  0  0  0
  6  7  2  0  0  0  0
  8  9  1  0  0  0  0
  9 10  1  0  0  0  0
 10 11  2  0  0  0  0
 10 12  1  0  0  0  0
M  END
>  <DSSTox_RID>
20610

>  <DSSTox_CID>
610

>  <DSSTox_Generic_SID>
20610

>  <DSSTox_FileID>
639_CPDBAS_v5d

>  <STRUCTURE_Formula>
C6H11N3O3

>  <STRUCTURE_MolecularWeight>
173.1712

>  <STRUCTURE_ChemicalType>
defined organic

>  <STRUCTURE_TestedForm_DefinedOrganic>
parent

>  <STRUCTURE_Shown>
tested chemical

>  <TestSubstance_ChemicalName>
1-Ethylnitroso-3-(2-oxopropyl)-urea

>  <TestSubstance_CASRN>
110559-84-7

>  <TestSubstance_Description>
single chemical compound

>  <STRUCTURE_ChemicalName_IUPAC>
1-ethyl-1-nitroso-3-(2-oxopropyl)urea

>  <STRUCTURE_SMILES>
O=C(N(CC)N=O)NCC(=O)C

>  <STRUCTURE_Parent_SMILES>
O=C(N(CC)N=O)NCC(=O)C

>  <STRUCTURE_InChI>
InChI=1/C6H11N3O3/c1-3-9(8-12)6(11)7-4-5(2)10/h3-4H2,1-2H3,(H,7,11)/f/h7H

>  <STRUCTURE_InChIKey>
FMKBEVQUKYPUEJ-QDQILVOLCA

>  <StudyType>
Carcinogenicity

>  <Endpoint>
TD50; Tumor Target Sites

>  <Species>
rat; hamster

>  <TD50_Rat_mg>
0.181

>  <TD50_Rat_mmol>
0.00105

>  <ActivityScore_CPDBAS_Rat>
57

>  <TD50_Rat_Note>
TD50 is harmonic mean of more than one positive test; harmonic mean of TD50 includes a value for upper 99% confidence limit from study with 100% tumor incidence but no lifetable

>  <TargetSites_Rat_Male>
large intestine; lung; nervous system; peritoneal cavity; skin

>  <TargetSites_Rat_Female>
large intestine; lung; mammary gland; nervous system; skin; thyroid gland; uterus

>  <ActivityOutcome_CPDBAS_Rat>
active

>  <TD50_Hamster_mg>
0.443

>  <TD50_Hamster_mmol>
0.00256

>  <ActivityScore_CPDBAS_Hamster>
89

>  <TD50_Hamster_Note>
TD50 is harmonic mean of more than one positive test

>  <TargetSites_Hamster_Male>
stomach; vascular system

>  <TargetSites_Hamster_Female>
stomach; vascular system

>  <ActivityOutcome_CPDBAS_Hamster>
active

>  <ActivityOutcome_CPDBAS_SingleCellCall>
active

>  <ActivityOutcome_CPDBAS_MultiCellCall>
active

>  <ActivityOutcome_CPDBAS_MultiCellCall_Details>
multisite active; multisex active; multispecies active

>  <Note_CPDBAS>
TD50_Rat_Note modified v5a

>  <ChemicalPage_URL>
http://potency.berkeley.edu/chempages/1-ETHYLNITROSO-3-(2-OXOPROPYL)UREA.html

$$$$



  7  6  0  0  0  0  0  0  0  0999 V2000
    3.3255    0.0000    0.0000 N   0  0  0  0  0  0  0  0  0  0  0  0
    2.6628   -1.1537    0.0000 C   0  0  0  0  0  0  0  0  0  0  0  0
    1.9961   -2.3035    0.0000 N   0  0  0  0  0  0  0  0  0  0  0  0
    2.6628   -3.4572    0.0000 C   0  0  0  0  0  0  0  0  0  0  0  0
    3.9922   -3.4572    0.0000 C   0  0  0  0  0  0  0  0  0  0  0  0
    0.6667   -2.3035    0.0000 N   0  0  0  0  0  0  0  0  0  0  0  0
    0.0000   -1.1537    0.0000 O   0  0  0  0  0  0  0  0  0  0  0  0
  1  2  3  0  0  0  0
  2  3  1  0  0  0  0
  3  4  1  0  0  0  0
  3  6  1  0  0  0  0
  4  5  1  0  0  0  0
  6  7  2  0  0  0  0
M  END
>  <DSSTox_RID>
20611

>  <DSSTox_CID>
611

>  <DSSTox_Generic_SID>
20611

>  <DSSTox_FileID>
640_CPDBAS_v5d

>  <STRUCTURE_Formula>
C3H5N3O

>  <STRUCTURE_MolecularWeight>
99.092

>  <STRUCTURE_ChemicalType>
defined organic

>  <STRUCTURE_TestedForm_DefinedOrganic>
parent

>  <STRUCTURE_Shown>
tested chemical

>  <TestSubstance_ChemicalName>
Ethylnitrosocyanamide

>  <TestSubstance_CASRN>
38434-77-4

>  <TestSubstance_Description>
single chemical compound

>  <STRUCTURE_ChemicalName_IUPAC>
ethyl(nitroso)cyanamide

>  <STRUCTURE_SMILES>
N#CN(CC)N=O

>  <STRUCTURE_Parent_SMILES>
N#CN(CC)N=O

>  <STRUCTURE_InChI>
InChI=1/C3H5N3O/c1-2-6(3-4)5-7/h2H2,1H3

>  <STRUCTURE_InChIKey>
LMIMSGCBKHFTDY-UHFFFAOYAH

>  <StudyType>
Carcinogenicity

>  <Endpoint>
TD50; Tumor Target Sites

>  <Species>
rat

>  <ActivityOutcome_CPDBAS_Mutagenicity>
active

>  <TD50_Rat_mg>
3.68

>  <TD50_Rat_mmol>
0.0371

>  <ActivityScore_CPDBAS_Rat>
40

>  <TD50_Rat_Note>
TD50 is harmonic mean of more than one positive test

>  <TargetSites_Rat_Male>
nasal cavity

>  <TargetSites_Rat_Female>
nasal cavity

>  <ActivityOutcome_CPDBAS_Rat>
active

>  <ActivityOutcome_CPDBAS_SingleCellCall>
active

>  <ActivityOutcome_CPDBAS_MultiCellCall>
active

>  <ActivityOutcome_CPDBAS_MultiCellCall_Details>
multisex active

>  <ChemicalPage_URL>
http://potency.berkeley.edu/chempages/ETHYLNITROSOCYANAMIDE.html

$$$$



 15 15  0  0  0  0  0  0  0  0999 V2000
    5.9866   -3.4543    0.0000 O   0  0  0  0  0  0  0  0  0  0  0  0
    4.6576   -3.4543    0.0000 C   0  0  0  0  0  0  0  0  0  0  0  0
    3.9930   -4.6097    0.0000 C   0  0  3  0  0  0  0  0  0  0  0  0
    2.6580   -4.6097    0.0000 C   0  0  0  0  0  0  0  0  0  0  0  0
    1.9935   -5.7591    0.0000 C   0  0  0  0  0  0  0  0  0  0  0  0
    0.6645   -5.7591    0.0000 C   0  0  0  0  0  0  0  0  0  0  0  0
    0.0000   -4.6097    0.0000 C   0  0  0  0  0  0  0  0  0  0  0  0
    0.6645   -3.4543    0.0000 C   0  0  0  0  0  0  0  0  0  0  0  0
    1.9935   -3.4543    0.0000 C   0  0  0  0  0  0  0  0  0  0  0  0
    4.6576   -5.7591    0.0000 C   0  0  0  0  0  0  0  0  0  0  0  0
    5.9866   -5.7591    0.0000 C   0  0  0  0  0  0  0  0  0  0  0  0
    3.9930   -2.3048    0.0000 N   0  0  0  0  0  0  0  0  0  0  0  0
    4.6576   -1.1494    0.0000 C   0  0  0  0  0  0  0  0  0  0  0  0
    3.9930    0.0000    0.0000 O   0  0  0  0  0  0  0  0  0  0  0  0
    5.9866   -1.1494    0.0000 N   0  0  0  0  0  0  0  0  0  0  0  0
  1  2  2  0  0  0  0
  2  3  1  0  0  0  0
  2 12  1  0  0  0  0
  3  4  1  0  0  0  0
  3 10  1  0  0  0  0
  4  5  2  0  0  0  0
  4  9  1  0  0  0  0
  5  6  1  0  0  0  0
  6  7  2  0  0  0  0
  7  8  1  0  0  0  0
  8  9  2  0  0  0  0
 10 11  1  0  0  0  0
 12 13  1  0  0  0  0
 13 14  2  0  0  0  0
 13 15  1  0  0  0  0
M  END
>  <DSSTox_RID>
20612

>  <DSSTox_CID>
612

>  <DSSTox_Generic_SID>
20612

>  <DSSTox_FileID>
641_CPDBAS_v5d

>  <STRUCTURE_Formula>
C11H14N2O2

>  <STRUCTURE_MolecularWeight>
206.2438

>  <STRUCTURE_ChemicalType>
defined organic

>  <STRUCTURE_TestedForm_DefinedOrganic>
parent

>  <STRUCTURE_Shown>
tested chemical

>  <TestSubstance_ChemicalName>
Ethylphenylacetylurea

>  <TestSubstance_CASRN>
90-49-3

>  <TestSubstance_Description>
single chemical compound

>  <STRUCTURE_ChemicalName_IUPAC>
N-(aminocarbonyl)-2-phenylbutanamide

>  <STRUCTURE_SMILES>
O=C(C(C1=CC=CC=C1)CC)NC(=O)N

>  <STRUCTURE_Parent_SMILES>
O=C(C(C1=CC=CC=C1)CC)NC(=O)N

>  <STRUCTURE_InChI>
InChI=1/C11H14N2O2/c1-2-9(10(14)13-11(12)15)8-6-4-3-5-7-8/h3-7,9H,2H2,1H3,(H3,12,13,14,15)/f/h13H,12H2

>  <STRUCTURE_InChIKey>
AJOQSQHYDOFIOX-DXMPFREMCT

>  <StudyType>
Carcinogenicity

>  <Endpoint>
TD50; Tumor Target Sites

>  <Species>
rat

>  <ActivityScore_CPDBAS_Rat>
0

>  <TD50_Rat_Note>
no positive results

>  <TargetSites_Rat_Male>
no positive results

>  <ActivityOutcome_CPDBAS_Rat>
inactive

>  <ActivityOutcome_CPDBAS_SingleCellCall>
inactive

>  <ChemicalPage_URL>
http://potency.berkeley.edu/chempages/ETHYLPHENYLACETYLUREA.html

$$$$



 19 20  0  0  0  0  0  0  0  0999 V2000
    6.6503   -3.4592    0.0000 S   0  0  0  0  0  0  0  0  0  0  0  0
    7.9821   -3.4592    0.0000 C   0  0  0  0  0  0  0  0  0  0  0  0
    8.6480   -2.3090    0.0000 C   0  0  0  0  0  0  0  0  0  0  0  0
    6.6503   -4.7910    0.0000 O   0  0  0  0  0  0  0  0  0  0  0  0
    6.6503   -2.1274    0.0000 O   0  0  0  0  0  0  0  0  0  0  0  0
    5.3185   -3.4592    0.0000 C   0  0  0  0  0  0  0  0  0  0  0  0
    4.6526   -2.3090    0.0000 C   0  0  0  0  0  0  0  0  0  0  0  0
    3.3295   -2.3090    0.0000 C   0  0  0  0  0  0  0  0  0  0  0  0
    2.6636   -3.4592    0.0000 C   0  0  0  0  0  0  0  0  0  0  0  0
    3.3295   -4.6094    0.0000 C   0  0  0  0  0  0  0  0  0  0  0  0
    4.6526   -4.6094    0.0000 C   0  0  0  0  0  0  0  0  0  0  0  0
    1.3318   -3.4592    0.0000 S   0  0  0  0  0  0  0  0  0  0  0  0
    0.0000   -3.4592    0.0000 N   0  0  0  0  0  0  0  0  0  0  0  0
    1.3318   -4.7910    0.0000 O   0  0  0  0  0  0  0  0  0  0  0  0
    1.3318   -2.1274    0.0000 O   0  0  0  0  0  0  0  0  0  0  0  0
    2.6636   -1.1588    0.0000 C   0  0  0  0  0  0  0  0  0  0  0  0
    3.3295    0.0000    0.0000 C   0  0  0  0  0  0  0  0  0  0  0  0
    4.6526    0.0000    0.0000 C   0  0  0  0  0  0  0  0  0  0  0  0
    5.3185   -1.1588    0.0000 C   0  0  0  0  0  0  0  0  0  0  0  0
  1  2  1  0  0  0  0
  1  4  2  0  0  0  0
  1  5  2  0  0  0  0
  1  6  1  0  0  0  0
  2  3  1  0  0  0  0
  6  7  1  0  0  0  0
  6 11  2  0  0  0  0
  7  8  2  0  0  0  0
  7 19  1  0  0  0  0
  8  9  1  0  0  0  0
  8 16  1  0  0  0  0
  9 10  2  0  0  0  0
  9 12  1  0  0  0  0
 10 11  1  0  0  0  0
 12 13  1  0  0  0  0
 12 14  2  0  0  0  0
 12 15  2  0  0  0  0
 16 17  2  0  0  0  0
 17 18  1  0  0  0  0
 18 19  2  0  0  0  0
M  END
>  <DSSTox_RID>
20613

>  <DSSTox_CID>
613

>  <DSSTox_Generic_SID>
20613

>  <DSSTox_FileID>
642_CPDBAS_v5d

>  <STRUCTURE_Formula>
C12H13NO4S2

>  <STRUCTURE_MolecularWeight>
299.359

>  <STRUCTURE_ChemicalType>
defined organic

>  <STRUCTURE_TestedForm_DefinedOrganic>
parent

>  <STRUCTURE_Shown>
tested chemical

>  <TestSubstance_ChemicalName>
4-Ethylsulphonylnaphthalene-1-sulfonamide

>  <TestSubstance_CASRN>
842-00-2

>  <TestSubstance_Description>
single chemical compound

>  <STRUCTURE_ChemicalName_IUPAC>
4-(ethylsulfonyl)naphthalene-1-sulfonamide

>  <STRUCTURE_SMILES>
S(CC)(=O)(=O)C1C2=C(C(=CC=1)S(N)(=O)=O)C=CC=C2

>  <STRUCTURE_Parent_SMILES>
S(CC)(=O)(=O)C1C2=C(C(=CC=1)S(N)(=O)=O)C=CC=C2

>  <STRUCTURE_InChI>
InChI=1/C12H13NO4S2/c1-2-18(14,15)11-7-8-12(19(13,16)17)10-6-4-3-5-9(10)11/h3-8H,2H2,1H3,(H2,13,16,17)/f/h13H2

>  <STRUCTURE_InChIKey>
BLQOLXMZXQXGOL-DLGLGFIGCP

>  <StudyType>
Carcinogenicity

>  <Endpoint>
TD50; Tumor Target Sites

>  <Species>
mouse

>  <TD50_Mouse_mg>
21.1

>  <TD50_Mouse_mmol>
0.0705

>  <ActivityScore_CPDBAS_Mouse>
41

>  <TD50_Mouse_Note>
TD50 is harmonic mean of more than one positive test

>  <TargetSites_Mouse_Female>
urinary bladder

>  <ActivityOutcome_CPDBAS_Mouse>
active

>  <ActivityOutcome_CPDBAS_SingleCellCall>
active

>  <ChemicalPage_URL>
http://potency.berkeley.edu/chempages/4-ETHYLSULPHONYLNAPHTHALENE-1-SULFONAMIDE.html

$$$$



 32 35  0  0  1  0  0  0  0  0999 V2000
    9.2343   -3.8992    0.0000 C   0  0  2  0  0  0  0  0  0  0  0  0
   10.4989   -3.5435    0.0000 C   0  0  1  0  0  0  0  0  0  0  0  0
    9.2343   -5.2297    0.0000 C   0  0  2  0  0  0  0  0  0  0  0  0
    5.7961   -7.2452    0.0000 C   0  0  0  0  0  0  0  0  0  0  0  0
    8.1014   -5.9147    0.0000 C   0  0  1  0  0  0  0  0  0  0  0  0
    6.9290   -5.2297    0.0000 C   0  0  1  0  0  0  0  0  0  0  0  0
    5.7961   -5.9147    0.0000 C   0  0  1  0  0  0  0  0  0  0  0  0
   11.8294   -3.5567    0.0000 C   0  0  0  0  0  0  0  0  0  0  0  0
    4.6237   -7.8906    0.0000 C   0  0  0  0  0  0  0  0  0  0  0  0
    8.1014   -3.2406    0.0000 C   0  0  0  0  0  0  0  0  0  0  0  0
   10.8546   -2.2131    0.0000 O   0  0  0  0  0  0  0  0  0  0  0  0
    6.9290   -3.8992    0.0000 C   0  0  0  0  0  0  0  0  0  0  0  0
   10.4989   -5.6381    0.0000 C   0  0  0  0  0  0  0  0  0  0  0  0
    8.1014   -7.2452    0.0000 C   0  0  0  0  0  0  0  0  0  0  0  0
   13.1730   -3.5567    0.0000 C   0  0  0  0  0  0  0  0  0  0  0  0
    4.6237   -5.2297    0.0000 C   0  0  0  0  0  0  0  0  0  0  0  0
    9.9061   -1.2646    0.0000 C   0  0  0  0  0  0  0  0  0  0  0  0
   11.2761   -4.5447    0.0000 C   0  0  0  0  0  0  0  0  0  0  0  0
    6.9290   -7.8906    0.0000 C   0  0  0  0  0  0  0  0  0  0  0  0
    1.1461   -7.2715    0.0000 C   0  0  0  0  0  0  0  0  0  0  0  0
    3.4513   -7.2452    0.0000 C   0  0  1  0  0  0  0  0  0  0  0  0
    2.3185   -7.9038    0.0000 O   0  0  0  0  0  0  0  0  0  0  0  0
   10.2486    0.0000    0.0000 O   0  0  0  0  0  0  0  0  0  0  0  0
    0.0000   -7.9038    0.0000 O   0  0  0  0  0  0  0  0  0  0  0  0
    3.4513   -5.9147    0.0000 C   0  0  0  0  0  0  0  0  0  0  0  0
    9.2343   -2.5687    0.0000 C   0  0  0  0  0  0  0  0  0  0  0  0
    8.6415   -1.6203    0.0000 C   0  0  0  0  0  0  0  0  0  0  0  0
    1.1461   -5.9410    0.0000 C   0  0  0  0  0  0  0  0  0  0  0  0
    8.1014   -4.5842    0.0000 H   0  0  0  0  0  0  0  0  0  0  0  0
    9.2343   -6.5602    0.0000 H   0  0  0  0  0  0  0  0  0  0  0  0
    6.9290   -6.5602    0.0000 H   0  0  0  0  0  0  0  0  0  0  0  0
    5.7961   -4.5842    0.0000 H   0  0  0  0  0  0  0  0  0  0  0  0
  1  2  1  0  0  0  0
  1  3  1  0  0  0  0
  1 10  1  0  0  0  0
  1 26  1  1  0  0  0
  2  8  1  6  0  0  0
  2 11  1  0  0  0  0
  2 18  1  0  0  0  0
  3  5  1  0  0  0  0
  3 13  1  0  0  0  0
  3 30  1  6  0  0  0
  4  7  1  0  0  0  0
  4  9  2  0  0  0  0
  4 19  1  0  0  0  0
  5 14  1  0  0  0  0
  5  6  1  0  0  0  0
  5 29  1  1  0  0  0
  6 12  1  0  0  0  0
  6  7  1  0  0  0  0
  6 31  1  6  0  0  0
  7 16  1  0  0  0  0
  7 32  1  1  0  0  0
  8 15  3  0  0  0  0
  9 21  1  0  0  0  0
 10 12  1  0  0  0  0
 11 17  1  0  0  0  0
 13 18  1  0  0  0  0
 14 19  1  0  0  0  0
 16 25  1  0  0  0  0
 17 23  2  0  0  0  0
 17 27  1  0  0  0  0
 20 22  1  0  0  0  0
 20 24  2  0  0  0  0
 20 28  1  0  0  0  0
 21 25  1  0  0  0  0
 21 22  1  1  0  0  0
M  END
>  <DSSTox_RID>
20614

>  <DSSTox_CID>
614

>  <DSSTox_Generic_SID>
20614

>  <DSSTox_FileID>
643_CPDBAS_v5d

>  <STRUCTURE_Formula>
C24H32O4

>  <STRUCTURE_MolecularWeight>
384.50848

>  <STRUCTURE_ChemicalType>
defined organic

>  <STRUCTURE_TestedForm_DefinedOrganic>
parent

>  <STRUCTURE_Shown>
tested chemical

>  <TestSubstance_ChemicalName>
Ethynodiol diacetate

>  <TestSubstance_CASRN>
297-76-7

>  <TestSubstance_Description>
single chemical compound

>  <ChemicalNote>
stereochem

>  <STRUCTURE_ChemicalName_IUPAC>
(3beta,17beta)-17-ethynylestr-4-ene-3,17-diyl diacetate

>  <STRUCTURE_SMILES>
CC(=O)O[C@H]\1CC[C@H]4C(=C/1)/CC[C@@H]2[C@@H]4CC[C@]3(C)[C@@](CC[C@@H]23)(C#C)OC(C)=O

>  <STRUCTURE_Parent_SMILES>
CC(=O)O[C@H]\1CC[C@H]4C(=C/1)/CC[C@@H]2[C@@H]4CC[C@]3(C)[C@@](CC[C@@H]23)(C#C)OC(C)=O

>  <STRUCTURE_InChI>
InChI=1/C24H32O4/c1-5-24(28-16(3)26)13-11-22-21-8-6-17-14-18(27-15(2)25)7-9-19(17)20(21)10-12-23(22,24)4/h1,14,18-22H,6-13H2,2-4H3/t18-,19-,20+,21+,22-,23-,24-/m0/s1

>  <STRUCTURE_InChIKey>
ONKUMRGIYFNPJW-KIEAKMPYBP

>  <StudyType>
Carcinogenicity

>  <Endpoint>
TD50; Tumor Target Sites

>  <Species>
rat; mouse

>  <ActivityScore_CPDBAS_Rat>
0

>  <TD50_Rat_Note>
no positive results

>  <TargetSites_Rat_Female>
no positive results

>  <ActivityOutcome_CPDBAS_Rat>
inactive

>  <ActivityScore_CPDBAS_Mouse>
0

>  <TD50_Mouse_Note>
no positive results

>  <ActivityOutcome_CPDBAS_Mouse>
inactive

>  <ActivityOutcome_CPDBAS_SingleCellCall>
inactive

>  <ActivityOutcome_CPDBAS_MultiCellCall>
inactive

>  <ActivityOutcome_CPDBAS_MultiCellCall_Details>
multispecies inactive

>  <Note_CPDBAS>
female mice used mammary tumor virus pos stra(MTV+) with high spontaneous incidence of mammary tumors; mammary gland histopath only; no author opinion given since study measured mammary tumor latency; TargetSites_Mouse modified v3a; TargetSites_Mouse modified v5a

>  <ChemicalPage_URL>
http://potency.berkeley.edu/chempages/ETHYNODIOL%20DIACETATE.html

$$$$



 21 23  0  0  0  0  0  0  0  0999 V2000
    3.3395    0.0000    0.0000 C   0  0  0  0  0  0  0  0  0  0  0  0
    3.9288   -1.1983    0.0000 C   0  0  0  0  0  0  0  0  0  0  0  0
    3.1725   -2.3082    0.0000 C   0  0  3  0  0  0  0  0  0  0  0  0
    4.4002   -2.8385    0.0000 C   0  0  0  0  0  0  0  0  0  0  0  0
    4.5377   -4.1645    0.0000 C   0  0  0  0  0  0  0  0  0  0  0  0
    5.8342   -4.4395    0.0000 C   0  0  0  0  0  0  0  0  0  0  0  0
    6.5021   -3.2903    0.0000 C   0  0  0  0  0  0  0  0  0  0  0  0
    7.8281   -3.2903    0.0000 C   0  0  0  0  0  0  0  0  0  0  0  0
    8.4960   -4.4395    0.0000 C   0  0  0  0  0  0  0  0  0  0  0  0
    7.8281   -5.5887    0.0000 C   0  0  0  0  0  0  0  0  0  0  0  0
    6.5021   -5.5887    0.0000 C   0  0  0  0  0  0  0  0  0  0  0  0
    8.4960   -2.1314    0.0000 C   0  0  0  0  0  0  0  0  0  0  0  0
    9.8219   -2.1314    0.0000 C   0  0  0  0  0  0  0  0  0  0  0  0
    5.6083   -2.2983    0.0000 N   0  0  0  0  0  0  0  0  0  0  0  0
    3.4573   -4.9404    0.0000 C   0  0  0  0  0  0  0  0  0  0  0  0
    2.2492   -4.4002    0.0000 C   0  0  0  0  0  0  0  0  0  0  0  0
    2.1019   -3.0841    0.0000 O   0  0  0  0  0  0  0  0  0  0  0  0
    2.2296   -1.3652    0.0000 C   0  0  0  0  0  0  0  0  0  0  0  0
    0.9429   -1.7483    0.0000 C   0  0  0  0  0  0  0  0  0  0  0  0
    0.5991   -3.0252    0.0000 O   0  0  0  0  0  0  0  0  0  0  0  0
    0.0000   -0.8152    0.0000 O   0  0  0  0  0  0  0  0  0  0  0  0
  1  2  1  0  0  0  0
  2  3  1  0  0  0  0
  3  4  1  0  0  0  0
  3 17  1  0  0  0  0
  3 18  1  0  0  0  0
  4  5  2  0  0  0  0
  4 14  1  0  0  0  0
  5  6  1  0  0  0  0
  5 15  1  0  0  0  0
  6  7  2  0  0  0  0
  6 11  1  0  0  0  0
  7  8  1  0  0  0  0
  7 14  1  0  0  0  0
  8  9  2  0  0  0  0
  8 12  1  0  0  0  0
  9 10  1  0  0  0  0
 10 11  2  0  0  0  0
 12 13  1  0  0  0  0
 15 16  1  0  0  0  0
 16 17  1  0  0  0  0
 18 19  1  0  0  0  0
 19 20  2  0  0  0  0
 19 21  1  0  0  0  0
M  END
>  <DSSTox_RID>
20615

>  <DSSTox_CID>
615

>  <DSSTox_Generic_SID>
20615

>  <DSSTox_FileID>
644_CPDBAS_v5d

>  <STRUCTURE_Formula>
C17H21NO3

>  <STRUCTURE_MolecularWeight>
287.3578

>  <STRUCTURE_ChemicalType>
defined organic

>  <STRUCTURE_TestedForm_DefinedOrganic>
parent

>  <STRUCTURE_Shown>
tested chemical

>  <TestSubstance_ChemicalName>
Etodolac

>  <TestSubstance_CASRN>
41340-25-4

>  <TestSubstance_Description>
single chemical compound

>  <STRUCTURE_ChemicalName_IUPAC>
(1,8-diethyl-1,3,4,9-tetrahydropyrano[3,4-b]indol-1-yl)acetic acid

>  <STRUCTURE_SMILES>
CCC1(C2=C(C3=C(C(=CC=C3)CC)N2)CCO1)CC(=O)O

>  <STRUCTURE_Parent_SMILES>
CCC1(C2=C(C3=C(C(=CC=C3)CC)N2)CCO1)CC(=O)O

>  <STRUCTURE_InChI>
InChI=1/C17H21NO3/c1-3-11-6-5-7-12-13-8-9-21-17(4-2,10-14(19)20)16(13)18-15(11)12/h5-7,18H,3-4,8-10H2,1-2H3,(H,19,20)/f/h19H

>  <STRUCTURE_InChIKey>
NNYBQONXHNTVIJ-LILDFLRNCM

>  <StudyType>
Carcinogenicity

>  <Endpoint>
TD50; Tumor Target Sites

>  <Species>
rat; mouse

>  <ActivityScore_CPDBAS_Rat>
0

>  <TD50_Rat_Note>
no positive results

>  <TargetSites_Rat_Male>
no positive results

>  <TargetSites_Rat_Female>
no positive results

>  <ActivityOutcome_CPDBAS_Rat>
inactive

>  <ActivityScore_CPDBAS_Mouse>
0

>  <TD50_Mouse_Note>
no positive results

>  <TargetSites_Mouse_Male>
no positive results

>  <TargetSites_Mouse_Female>
no positive results

>  <ActivityOutcome_CPDBAS_Mouse>
inactive

>  <ActivityOutcome_CPDBAS_SingleCellCall>
inactive

>  <ActivityOutcome_CPDBAS_MultiCellCall>
inactive

>  <ActivityOutcome_CPDBAS_MultiCellCall_Details>
multisex inactive; multispecies inactive

>  <ChemicalPage_URL>
http://potency.berkeley.edu/chempages/ETODOLAC.html

$$$$



 11 12  0  0  0  0  0  0  0  0999 V2000
    1.5616    0.0000    0.0000 C   0  0  0  0  0  0  0  0  0  0  0  0
    0.1703   -2.4213    0.0000 O   0  0  0  0  0  0  0  0  0  0  0  0
    1.0134   -2.9529    0.0000 C   0  0  0  0  0  0  0  0  0  0  0  0
    0.0000   -4.0825    0.0000 C   0  0  0  0  0  0  0  0  0  0  0  0
    1.6322   -4.1531    0.0000 C   0  0  0  0  0  0  0  0  0  0  0  0
    1.9893   -2.2842    0.0000 C   0  0  0  0  0  0  0  0  0  0  0  0
    1.5616   -1.6114    0.0000 C   0  0  0  0  0  0  0  0  0  0  0  0
    3.1730   -2.1472    0.0000 C   0  0  0  0  0  0  0  0  0  0  0  0
    3.3308   -2.9529    0.0000 C   0  0  0  0  0  0  0  0  0  0  0  0
    1.9893   -0.4818    0.0000 C   0  0  0  0  0  0  0  0  0  0  0  0
    0.4818   -1.0300    0.0000 C   0  0  0  0  0  0  0  0  0  0  0  0
  1 10  1  0  0  0  0
  1  7  1  0  0  0  0
  2  3  1  0  0  0  0
  2  7  1  0  0  0  0
  3  4  1  0  0  0  0
  3  5  1  0  0  0  0
  3  6  1  0  0  0  0
  6  9  1  0  0  0  0
  6 10  1  0  0  0  0
  7  8  1  0  0  0  0
  7 11  1  0  0  0  0
  8  9  1  0  0  0  0
M  END
>  <DSSTox_RID>
20616

>  <DSSTox_CID>
616

>  <DSSTox_Generic_SID>
20616

>  <DSSTox_FileID>
645_CPDBAS_v5d

>  <STRUCTURE_Formula>
C10H18O

>  <STRUCTURE_MolecularWeight>
154.2493

>  <STRUCTURE_ChemicalType>
defined organic

>  <STRUCTURE_TestedForm_DefinedOrganic>
parent

>  <STRUCTURE_Shown>
tested chemical

>  <TestSubstance_ChemicalName>
Eucalyptol

>  <TestSubstance_CASRN>
470-82-6

>  <TestSubstance_Description>
single chemical compound

>  <ChemicalNote>
Cineole, stereochem

>  <STRUCTURE_ChemicalName_IUPAC>
1,3,3-trimethyl-2-oxabicyclo[2.2.2]octane

>  <STRUCTURE_SMILES>
CC2(C)OC1(C)CCC2CC1

>  <STRUCTURE_Parent_SMILES>
CC2(C)OC1(C)CCC2CC1

>  <STRUCTURE_InChI>
InChI=1/C10H18O/c1-9(2)8-4-6-10(3,11-9)7-5-8/h8H,4-7H2,1-3H3

>  <STRUCTURE_InChIKey>
WEEGYLXZBRQIMU-UHFFFAOYAY

>  <StudyType>
Carcinogenicity

>  <Endpoint>
TD50; Tumor Target Sites

>  <Species>
mouse

>  <ActivityOutcome_CPDBAS_Mutagenicity>
inactive

>  <ActivityScore_CPDBAS_Mouse>
0

>  <TD50_Mouse_Note>
no positive results

>  <TargetSites_Mouse_Male>
no positive results

>  <ActivityOutcome_CPDBAS_Mouse>
inactive

>  <ActivityOutcome_CPDBAS_SingleCellCall>
inactive

>  <ChemicalPage_URL>
http://potency.berkeley.edu/chempages/EUCALYPTOL.html

$$$$



 12 12  0  0  0  0  0  0  0  0999 V2000
    6.9143    0.0000    0.0000 O   0  0  0  0  0  0  0  0  0  0  0  0
    5.7605   -0.6696    0.0000 C   0  0  0  0  0  0  0  0  0  0  0  0
    5.7605   -2.0009    0.0000 C   0  0  0  0  0  0  0  0  0  0  0  0
    4.6068   -2.6624    0.0000 C   0  0  0  0  0  0  0  0  0  0  0  0
    3.4612   -2.0009    0.0000 C   0  0  0  0  0  0  0  0  0  0  0  0
    3.4612   -0.6696    0.0000 C   0  0  0  0  0  0  0  0  0  0  0  0
    4.6068    0.0000    0.0000 C   0  0  0  0  0  0  0  0  0  0  0  0
    2.3074   -2.6624    0.0000 C   0  0  0  0  0  0  0  0  0  0  0  0
    1.1537   -2.0009    0.0000 C   0  0  0  0  0  0  0  0  0  0  0  0
    0.0000   -2.6624    0.0000 C   0  0  0  0  0  0  0  0  0  0  0  0
    6.9143   -2.6624    0.0000 O   0  0  0  0  0  0  0  0  0  0  0  0
    8.0680   -2.0009    0.0000 C   0  0  0  0  0  0  0  0  0  0  0  0
  1  2  1  0  0  0  0
  2  3  2  0  0  0  0
  2  7  1  0  0  0  0
  3  4  1  0  0  0  0
  3 11  1  0  0  0  0
  4  5  2  0  0  0  0
  5  6  1  0  0  0  0
  5  8  1  0  0  0  0
  6  7  2  0  0  0  0
  8  9  1  0  0  0  0
  9 10  2  0  0  0  0
 11 12  1  0  0  0  0
M  END
>  <DSSTox_RID>
20617

>  <DSSTox_CID>
617

>  <DSSTox_Generic_SID>
20617

>  <DSSTox_FileID>
646_CPDBAS_v5d

>  <STRUCTURE_Formula>
C10H12O2

>  <STRUCTURE_MolecularWeight>
164.2011

>  <STRUCTURE_ChemicalType>
defined organic

>  <STRUCTURE_TestedForm_DefinedOrganic>
parent

>  <STRUCTURE_Shown>
tested chemical

>  <TestSubstance_ChemicalName>
Eugenol

>  <TestSubstance_CASRN>
97-53-0

>  <TestSubstance_Description>
single chemical compound

>  <STRUCTURE_ChemicalName_IUPAC>
4-allyl-2-methoxyphenol

>  <STRUCTURE_SMILES>
OC1=C(C=C(C=C1)CC=C)OC

>  <STRUCTURE_Parent_SMILES>
OC1=C(C=C(C=C1)CC=C)OC

>  <STRUCTURE_InChI>
InChI=1/C10H12O2/c1-3-4-8-5-6-9(11)10(7-8)12-2/h3,5-7,11H,1,4H2,2H3

>  <STRUCTURE_InChIKey>
RRAFCDWBNXTKKO-UHFFFAOYAJ

>  <StudyType>
Carcinogenicity

>  <Endpoint>
TD50; Tumor Target Sites

>  <Species>
rat; mouse

>  <ActivityOutcome_CPDBAS_Mutagenicity>
inactive

>  <ActivityScore_CPDBAS_Rat>
0

>  <TD50_Rat_Note>
no positive results

>  <TargetSites_Rat_Male>
no positive results

>  <TargetSites_Rat_Female>
no positive results

>  <ActivityOutcome_CPDBAS_Rat>
inactive

>  <ActivityScore_CPDBAS_Mouse>
0

>  <TD50_Mouse_Note>
no positive results

>  <TargetSites_Mouse_Male>
no positive results

>  <TargetSites_Mouse_Female>
no positive results

>  <ActivityOutcome_CPDBAS_Mouse>
inactive

>  <ActivityOutcome_CPDBAS_SingleCellCall>
inactive

>  <ActivityOutcome_CPDBAS_MultiCellCall>
inactive

>  <ActivityOutcome_CPDBAS_MultiCellCall_Details>
multisex inactive; multispecies inactive

>  <NTP_TechnicalReport>
TR 223

>  <ChemicalPage_URL>
http://potency.berkeley.edu/chempages/EUGENOL.html

$$$$



 16 16  0  0  0  0  0  0  0  0999 V2000
    7.9773    0.0000    0.0000 S   0  0  0  0  0  0  0  0  0  0  0  0
    7.2786    1.2131    0.0000 P   0  0  0  0  0  0  0  0  0  0  0  0
    6.0655    0.5143    0.0000 O   0  0  0  0  0  0  0  0  0  0  0  0
    4.8525    1.2131    0.0000 C   0  0  0  0  0  0  0  0  0  0  0  0
    3.6393    0.5143    0.0000 C   0  0  0  0  0  0  0  0  0  0  0  0
    2.4262    1.2131    0.0000 C   0  0  0  0  0  0  0  0  0  0  0  0
    2.4262    2.6105    0.0000 C   0  0  0  0  0  0  0  0  0  0  0  0
    3.6393    3.3190    0.0000 C   0  0  0  0  0  0  0  0  0  0  0  0
    4.8525    2.6105    0.0000 C   0  0  0  0  0  0  0  0  0  0  0  0
    1.2130    3.3190    0.0000 S   0  0  0  0  0  0  0  0  0  0  0  0
    0.0000    2.6105    0.0000 C   0  0  0  0  0  0  0  0  0  0  0  0
    1.2130    0.5143    0.0000 C   0  0  0  0  0  0  0  0  0  0  0  0
    6.5798    2.4262    0.0000 O   0  0  0  0  0  0  0  0  0  0  0  0
    7.2786    3.6393    0.0000 C   0  0  0  0  0  0  0  0  0  0  0  0
    8.4917    1.9118    0.0000 O   0  0  0  0  0  0  0  0  0  0  0  0
    9.7048    1.2131    0.0000 C   0  0  0  0  0  0  0  0  0  0  0  0
  1  2  2  0  0  0  0
  2  3  1  0  0  0  0
  2 13  1  0  0  0  0
  2 15  1  0  0  0  0
  3  4  1  0  0  0  0
  4  5  2  0  0  0  0
  4  9  1  0  0  0  0
  5  6  1  0  0  0  0
  6  7  2  0  0  0  0
  6 12  1  0  0  0  0
  7  8  1  0  0  0  0
  7 10  1  0  0  0  0
  8  9  2  0  0  0  0
 10 11  1  0  0  0  0
 13 14  1  0  0  0  0
 15 16  1  0  0  0  0
M  END
>  <DSSTox_RID>
20620

>  <DSSTox_CID>
620

>  <DSSTox_Generic_SID>
20620

>  <DSSTox_FileID>
649_CPDBAS_v5d

>  <STRUCTURE_Formula>
C10H15O3PS2

>  <STRUCTURE_MolecularWeight>
278.3281

>  <STRUCTURE_ChemicalType>
defined organic

>  <STRUCTURE_TestedForm_DefinedOrganic>
parent

>  <STRUCTURE_Shown>
tested chemical

>  <TestSubstance_ChemicalName>
Fenthion

>  <TestSubstance_CASRN>
55-38-9

>  <TestSubstance_Description>
single chemical compound

>  <STRUCTURE_ChemicalName_IUPAC>
O,O-dimethyl O-[3-methyl-4-(methylthio)phenyl] thiophosphate

>  <STRUCTURE_SMILES>
S=P(OC1=CC(=C(C=C1)SC)C)(OC)OC

>  <STRUCTURE_Parent_SMILES>
S=P(OC1=CC(=C(C=C1)SC)C)(OC)OC

>  <STRUCTURE_InChI>
InChI=1/C10H15O3PS2/c1-8-7-9(5-6-10(8)16-4)13-14(15,11-2)12-3/h5-7H,1-4H3

>  <STRUCTURE_InChIKey>
PNVJTZOFSHSLTO-UHFFFAOYAH

>  <StudyType>
Carcinogenicity

>  <Endpoint>
TD50; Tumor Target Sites

>  <Species>
rat; mouse

>  <ActivityOutcome_CPDBAS_Mutagenicity>
inactive

>  <ActivityScore_CPDBAS_Rat>
0

>  <TD50_Rat_Note>
no positive results

>  <TargetSites_Rat_Male>
no positive results

>  <TargetSites_Rat_Female>
no positive results

>  <ActivityOutcome_CPDBAS_Rat>
inactive

>  <ActivityScore_CPDBAS_Mouse>
0

>  <TD50_Mouse_Note>
no positive results

>  <TargetSites_Mouse_Male>
no positive results

>  <TargetSites_Mouse_Female>
no positive results

>  <ActivityOutcome_CPDBAS_Mouse>
inactive

>  <ActivityOutcome_CPDBAS_SingleCellCall>
inactive

>  <ActivityOutcome_CPDBAS_MultiCellCall>
inactive

>  <ActivityOutcome_CPDBAS_MultiCellCall_Details>
multisex inactive; multispecies inactive

>  <NTP_TechnicalReport>
TR 103

>  <ChemicalPage_URL>
http://potency.berkeley.edu/chempages/FENTHION.html

$$$$



 30 32  0  0  0  0  0  0  0  0999 V2000
    3.4569   -1.3252    0.0000 O   0  0  0  0  0  0  0  0  0  0  0  0
    3.4569   -2.6618    0.0000 C   0  0  0  0  0  0  0  0  0  0  0  0
    2.3046   -3.3186    0.0000 C   0  0  3  0  0  0  0  0  0  0  0  0
    2.3046   -4.6553    0.0000 C   0  0  0  0  0  0  0  0  0  0  0  0
    3.4569   -5.3237    0.0000 C   0  0  0  0  0  0  0  0  0  0  0  0
    3.4569   -6.6488    0.0000 C   0  0  0  0  0  0  0  0  0  0  0  0
    2.3046   -7.3171    0.0000 C   0  0  0  0  0  0  0  0  0  0  0  0
    1.1523   -6.6488    0.0000 C   0  0  0  0  0  0  0  0  0  0  0  0
    1.1523   -5.3237    0.0000 C   0  0  0  0  0  0  0  0  0  0  0  0
    2.3046   -8.6423    0.0000 Cl  0  0  0  0  0  0  0  0  0  0  0  0
    1.1523   -2.6618    0.0000 C   0  0  0  0  0  0  0  0  0  0  0  0
    0.0000   -3.3186    0.0000 C   0  0  0  0  0  0  0  0  0  0  0  0
    1.1523   -1.3252    0.0000 C   0  0  0  0  0  0  0  0  0  0  0  0
    4.6092   -3.3186    0.0000 O   0  0  0  0  0  0  0  0  0  0  0  0
    5.7615   -2.6618    0.0000 C   0  0  3  0  0  0  0  0  0  0  0  0
    6.9138   -3.3186    0.0000 C   0  0  0  0  0  0  0  0  0  0  0  0
    8.0661   -2.6618    0.0000 C   0  0  0  0  0  0  0  0  0  0  0  0
    9.2184   -3.3186    0.0000 C   0  0  0  0  0  0  0  0  0  0  0  0
    9.2184   -4.6553    0.0000 C   0  0  0  0  0  0  0  0  0  0  0  0
    8.0661   -5.3237    0.0000 C   0  0  0  0  0  0  0  0  0  0  0  0
    6.9138   -4.6553    0.0000 C   0  0  0  0  0  0  0  0  0  0  0  0
    8.0661   -6.6488    0.0000 O   0  0  0  0  0  0  0  0  0  0  0  0
    9.2184   -7.3171    0.0000 C   0  0  0  0  0  0  0  0  0  0  0  0
   10.3708   -6.6488    0.0000 C   0  0  0  0  0  0  0  0  0  0  0  0
   11.5231   -7.3171    0.0000 C   0  0  0  0  0  0  0  0  0  0  0  0
   11.5231   -8.6423    0.0000 C   0  0  0  0  0  0  0  0  0  0  0  0
   10.3708   -9.3106    0.0000 C   0  0  0  0  0  0  0  0  0  0  0  0
    9.2184   -8.6423    0.0000 C   0  0  0  0  0  0  0  0  0  0  0  0
    5.7615   -1.3252    0.0000 C   0  0  0  0  0  0  0  0  0  0  0  0
    5.7615    0.0000    0.0000 N   0  0  0  0  0  0  0  0  0  0  0  0
  1  2  2  0  0  0  0
  2  3  1  0  0  0  0
  2 14  1  0  0  0  0
  3  4  1  0  0  0  0
  3 11  1  0  0  0  0
  4  5  2  0  0  0  0
  4  9  1  0  0  0  0
  5  6  1  0  0  0  0
  6  7  2  0  0  0  0
  7  8  1  0  0  0  0
  7 10  1  0  0  0  0
  8  9  2  0  0  0  0
 11 12  1  0  0  0  0
 11 13  1  0  0  0  0
 14 15  1  0  0  0  0
 15 16  1  0  0  0  0
 15 29  1  0  0  0  0
 16 17  2  0  0  0  0
 16 21  1  0  0  0  0
 17 18  1  0  0  0  0
 18 19  2  0  0  0  0
 19 20  1  0  0  0  0
 20 21  2  0  0  0  0
 20 22  1  0  0  0  0
 22 23  1  0  0  0  0
 23 24  2  0  0  0  0
 23 28  1  0  0  0  0
 24 25  1  0  0  0  0
 25 26  2  0  0  0  0
 26 27  1  0  0  0  0
 27 28  2  0  0  0  0
 29 30  3  0  0  0  0
M  END
>  <DSSTox_RID>
20621

>  <DSSTox_CID>
621

>  <DSSTox_Generic_SID>
20621

>  <DSSTox_FileID>
650_CPDBAS_v5d

>  <STRUCTURE_Formula>
C25H22ClNO3

>  <STRUCTURE_MolecularWeight>
419.9001

>  <STRUCTURE_ChemicalType>
defined organic

>  <STRUCTURE_TestedForm_DefinedOrganic>
parent

>  <STRUCTURE_Shown>
tested chemical

>  <TestSubstance_ChemicalName>
Fenvalerate

>  <TestSubstance_CASRN>
51630-58-1

>  <TestSubstance_Description>
single chemical compound

>  <STRUCTURE_ChemicalName_IUPAC>
cyano[3-(phenyloxy)phenyl]methyl 2-(4-chlorophenyl)-3-methylbutanoate

>  <STRUCTURE_SMILES>
O=C(C(C1=CC=C(C=C1)Cl)C(C)C)OC(C2=CC=CC(=C2)OC3=CC=CC=C3)C#N

>  <STRUCTURE_Parent_SMILES>
O=C(C(C1=CC=C(C=C1)Cl)C(C)C)OC(C2=CC=CC(=C2)OC3=CC=CC=C3)C#N

>  <STRUCTURE_InChI>
InChI=1/C25H22ClNO3/c1-17(2)24(18-11-13-20(26)14-12-18)25(28)30-23(16-27)19-7-6-10-22(15-19)29-21-8-4-3-5-9-21/h3-15,17,23-24H,1-2H3

>  <STRUCTURE_InChIKey>
NYPJDWWKZLNGGM-UHFFFAOYAU

>  <StudyType>
Carcinogenicity

>  <Endpoint>
TD50; Tumor Target Sites

>  <Species>
rat; mouse

>  <ActivityScore_CPDBAS_Rat>
0

>  <TD50_Rat_Note>
no positive results

>  <TargetSites_Rat_Male>
no positive results

>  <TargetSites_Rat_Female>
no positive results

>  <ActivityOutcome_CPDBAS_Rat>
inactive

>  <ActivityScore_CPDBAS_Mouse>
0

>  <TD50_Mouse_Note>
no positive results

>  <TargetSites_Mouse_Male>
no positive results

>  <TargetSites_Mouse_Female>
no positive results

>  <ActivityOutcome_CPDBAS_Mouse>
inactive

>  <ActivityOutcome_CPDBAS_SingleCellCall>
inactive

>  <ActivityOutcome_CPDBAS_MultiCellCall>
inactive

>  <ActivityOutcome_CPDBAS_MultiCellCall_Details>
multisex inactive; multispecies inactive

>  <ChemicalPage_URL>
http://potency.berkeley.edu/chempages/FENVALERATE.html

$$$$



 31 34  0  0  1  0  0  0  0  0999 V2000
    6.9124   -2.6967    0.0000 C   0  0  1  0  0  0  0  0  0  0  0  0
    3.4621   -4.6868    0.0000 C   0  0  1  0  0  0  0  0  0  0  0  0
    6.9124   -4.0274    0.0000 C   0  0  2  0  0  0  0  0  0  0  0  0
    4.6161   -4.0274    0.0000 C   0  0  2  0  0  0  0  0  0  0  0  0
    5.7584   -4.6868    0.0000 C   0  0  1  0  0  0  0  0  0  0  0  0
    8.5964   -1.0010    0.0000 C   0  0  0  0  0  0  0  0  0  0  0  0
    8.1725   -2.2727    0.0000 C   0  0  1  0  0  0  0  0  0  0  0  0
    2.3198   -6.6887    0.0000 N   0  0  0  0  0  0  0  0  0  0  0  0
    2.3198   -4.0274    0.0000 C   0  0  0  0  0  0  0  0  0  0  0  0
    3.4621   -6.0293    0.0000 C   0  0  2  0  0  0  0  0  0  0  0  0
    1.1776   -6.0293    0.0000 C   0  0  0  0  0  0  0  0  0  0  0  0
    9.9035   -0.7183    0.0000 N   0  0  0  0  0  0  0  0  0  0  0  0
    5.7584   -2.0372    0.0000 C   0  0  0  0  0  0  0  0  0  0  0  0
    4.6161   -2.6967    0.0000 C   0  0  0  0  0  0  0  0  0  0  0  0
    8.1725   -4.4277    0.0000 C   0  0  0  0  0  0  0  0  0  0  0  0
    1.1776   -4.6868    0.0000 C   0  0  0  0  0  0  0  0  0  0  0  0
    8.9497   -3.3561    0.0000 C   0  0  0  0  0  0  0  0  0  0  0  0
    5.7584   -6.0293    0.0000 C   0  0  0  0  0  0  0  0  0  0  0  0
    7.7014    0.0000    0.0000 O   0  0  0  0  0  0  0  0  0  0  0  0
    4.6161   -6.6887    0.0000 C   0  0  0  0  0  0  0  0  0  0  0  0
   10.7867   -1.7075    0.0000 C   0  0  0  0  0  0  0  0  0  0  0  0
    0.0000   -6.7123    0.0000 O   0  0  0  0  0  0  0  0  0  0  0  0
    6.9124   -1.3542    0.0000 C   0  0  0  0  0  0  0  0  0  0  0  0
    3.4621   -3.3561    0.0000 C   0  0  0  0  0  0  0  0  0  0  0  0
   11.6817   -2.6967    0.0000 C   0  0  0  0  0  0  0  0  0  0  0  0
   11.7759   -0.8243    0.0000 C   0  0  0  0  0  0  0  0  0  0  0  0
    9.8093   -2.5789    0.0000 C   0  0  0  0  0  0  0  0  0  0  0  0
    3.4621   -7.3599    0.0000 H   0  0  0  0  0  0  0  0  0  0  0  0
    5.7584   -3.3561    0.0000 H   0  0  0  0  0  0  0  0  0  0  0  0
    4.6161   -5.3580    0.0000 H   0  0  0  0  0  0  0  0  0  0  0  0
    6.9124   -5.3580    0.0000 H   0  0  0  0  0  0  0  0  0  0  0  0
  1  3  1  0  0  0  0
  1  7  1  0  0  0  0
  1 13  1  0  0  0  0
  1 23  1  1  0  0  0
  2  4  1  0  0  0  0
  2  9  1  0  0  0  0
  2 10  1  0  0  0  0
  2 24  1  1  0  0  0
  3  5  1  0  0  0  0
  3 15  1  0  0  0  0
  3 31  1  6  0  0  0
  4 14  1  0  0  0  0
  4  5  1  0  0  0  0
  4 30  1  6  0  0  0
  5 18  1  0  0  0  0
  5 29  1  1  0  0  0
  7  6  1  1  0  0  0
  6 12  1  0  0  0  0
  6 19  2  0  0  0  0
  7 17  1  0  0  0  0
  8 10  1  0  0  0  0
  8 11  1  0  0  0  0
  9 16  2  0  0  0  0
 10 28  1  6  0  0  0
 10 20  1  0  0  0  0
 11 22  2  0  0  0  0
 11 16  1  0  0  0  0
 12 21  1  0  0  0  0
 13 14  1  0  0  0  0
 15 17  1  0  0  0  0
 18 20  1  0  0  0  0
 21 25  1  0  0  0  0
 21 26  1  0  0  0  0
 21 27  1  0  0  0  0
M  END
>  <DSSTox_RID>
20625

>  <DSSTox_CID>
625

>  <DSSTox_Generic_SID>
20625

>  <DSSTox_FileID>
654_CPDBAS_v5d

>  <STRUCTURE_Formula>
C23H36N2O2

>  <STRUCTURE_MolecularWeight>
372.54414

>  <STRUCTURE_ChemicalType>
defined organic

>  <STRUCTURE_TestedForm_DefinedOrganic>
parent

>  <STRUCTURE_Shown>
tested chemical

>  <TestSubstance_ChemicalName>
Finasteride

>  <TestSubstance_CASRN>
98319-26-7

>  <TestSubstance_Description>
single chemical compound

>  <ChemicalNote>
stereochem

>  <STRUCTURE_ChemicalName_IUPAC>
(4aR,4bS,6aS,7S,9aS,9bS,11aR)-N-(1,1-dimethylethyl)-4a,6a-dimethyl-2-oxo-2,4a,4b,5,6,6a,7,8,9,9a,9b,10,11,11a-tetradecahydro-1H-indeno[5,4-f]quinoline-7-carboxamide

>  <STRUCTURE_SMILES>
CC(C)(C)NC(=O)[C@H]4CC[C@@H]3[C@]4(C)CC[C@H]1[C@H]3CC[C@H]2NC(=O)\C=C/[C@]12C

>  <STRUCTURE_Parent_SMILES>
CC(C)(C)NC(=O)[C@H]4CC[C@@H]3[C@]4(C)CC[C@H]1[C@H]3CC[C@H]2NC(=O)\C=C/[C@]12C

>  <STRUCTURE_InChI>
InChI=1/C23H36N2O2/c1-21(2,3)25-20(27)17-8-7-15-14-6-9-18-23(5,13-11-19(26)24-18)16(14)10-12-22(15,17)4/h11,13-18H,6-10,12H2,1-5H3,(H,24,26)(H,25,27)/t14-,15-,16-,17+,18+,22-,23+/m0/s1/f/h24-25H

>  <STRUCTURE_InChIKey>
DBEPLOCGEIEOCV-AUQDNANGDY

>  <StudyType>
Carcinogenicity

>  <Endpoint>
TD50; Tumor Target Sites

>  <Species>
mouse

>  <TD50_Mouse_mg>
326

>  <TD50_Mouse_mmol>
0.875

>  <ActivityScore_CPDBAS_Mouse>
29

>  <TargetSites_Mouse_Male>
testes

>  <ActivityOutcome_CPDBAS_Mouse>
active

>  <ActivityOutcome_CPDBAS_SingleCellCall>
active

>  <ChemicalPage_URL>
http://potency.berkeley.edu/chempages/FINASTERIDE.html

$$$$



 22 24  0  0  0  0  0  0  0  0999 V2000
    4.0564    0.0000    0.0000 N   0  0  0  0  0  0  0  0  0  0  0  0
    2.9389   -0.6511    0.0000 C   0  0  0  0  0  0  0  0  0  0  0  0
    3.2029   -1.9182    0.0000 N   0  0  0  0  0  0  0  0  0  0  0  0
    4.4964   -2.0502    0.0000 N   0  0  0  0  0  0  0  0  0  0  0  0
    5.0244   -0.8711    0.0000 C   0  0  0  0  0  0  0  0  0  0  0  0
    5.3411   -3.5109    0.0000 C   0  0  0  0  0  0  0  0  0  0  0  0
    4.4964   -4.9716    0.0000 C   0  0  0  0  0  0  0  0  0  0  0  0
    5.6227   -5.6227    0.0000 C   0  0  0  0  0  0  0  0  0  0  0  0
    6.7490   -4.9716    0.0000 N   0  0  0  0  0  0  0  0  0  0  0  0
    6.8810   -3.6869    0.0000 N   0  0  0  0  0  0  0  0  0  0  0  0
    8.1481   -3.4141    0.0000 C   0  0  0  0  0  0  0  0  0  0  0  0
    8.7992   -4.5404    0.0000 N   0  0  0  0  0  0  0  0  0  0  0  0
    7.9281   -5.4995    0.0000 C   0  0  0  0  0  0  0  0  0  0  0  0
    3.3701   -4.3292    0.0000 C   0  0  0  0  0  0  0  0  0  0  0  0
    2.2526   -4.9716    0.0000 C   0  0  0  0  0  0  0  0  0  0  0  0
    1.1263   -4.3292    0.0000 C   0  0  0  0  0  0  0  0  0  0  0  0
    1.1263   -3.0269    0.0000 C   0  0  0  0  0  0  0  0  0  0  0  0
    2.2526   -2.3758    0.0000 C   0  0  0  0  0  0  0  0  0  0  0  0
    3.3701   -3.0269    0.0000 C   0  0  0  0  0  0  0  0  0  0  0  0
    0.0000   -2.3758    0.0000 F   0  0  0  0  0  0  0  0  0  0  0  0
    2.2526   -6.2738    0.0000 F   0  0  0  0  0  0  0  0  0  0  0  0
    3.8453   -6.0979    0.0000 O   0  0  0  0  0  0  0  0  0  0  0  0
  1  2  1  0  0  0  0
  1  5  2  0  0  0  0
  2  3  2  0  0  0  0
  3  4  1  0  0  0  0
  4  5  1  0  0  0  0
  4  6  1  0  0  0  0
  6  7  1  0  0  0  0
  7  8  1  0  0  0  0
  7 14  1  0  0  0  0
  7 22  1  0  0  0  0
  8  9  1  0  0  0  0
  9 10  1  0  0  0  0
  9 13  1  0  0  0  0
 10 11  2  0  0  0  0
 11 12  1  0  0  0  0
 12 13  2  0  0  0  0
 14 15  2  0  0  0  0
 14 19  1  0  0  0  0
 15 16  1  0  0  0  0
 15 21  1  0  0  0  0
 16 17  2  0  0  0  0
 17 18  1  0  0  0  0
 17 20  1  0  0  0  0
 18 19  2  0  0  0  0
M  END
>  <DSSTox_RID>
20627

>  <DSSTox_CID>
627

>  <DSSTox_Generic_SID>
20627

>  <DSSTox_FileID>
656_CPDBAS_v5d

>  <STRUCTURE_Formula>
C13H12F2N6O

>  <STRUCTURE_MolecularWeight>
306.2708

>  <STRUCTURE_ChemicalType>
defined organic

>  <STRUCTURE_TestedForm_DefinedOrganic>
parent

>  <STRUCTURE_Shown>
tested chemical

>  <TestSubstance_ChemicalName>
Fluconazole

>  <TestSubstance_CASRN>
86386-73-4

>  <TestSubstance_Description>
single chemical compound

>  <STRUCTURE_ChemicalName_IUPAC>
2-(2,4-difluorophenyl)-1,3-di-1H-1,2,4-triazol-1-ylpropan-2-ol

>  <STRUCTURE_SMILES>
N1C=NN(C=1)CC(CN2N=CN=C2)(C3=C(C=C(C=C3)F)F)O

>  <STRUCTURE_Parent_SMILES>
N1C=NN(C=1)CC(CN2N=CN=C2)(C3=C(C=C(C=C3)F)F)O

>  <STRUCTURE_InChI>
InChI=1/C13H12F2N6O/c14-10-1-2-11(12(15)3-10)13(22,4-20-8-16-6-18-20)5-21-9-17-7-19-21/h1-3,6-9,22H,4-5H2

>  <STRUCTURE_InChIKey>
RFHAOTPXVQNOHP-UHFFFAOYAZ

>  <StudyType>
Carcinogenicity

>  <Endpoint>
TD50; Tumor Target Sites

>  <Species>
rat; mouse

>  <TD50_Rat_mg>
80.7

>  <TD50_Rat_mmol>
0.263

>  <ActivityScore_CPDBAS_Rat>
32

>  <TargetSites_Rat_Male>
liver

>  <TargetSites_Rat_Female>
no positive results

>  <ActivityOutcome_CPDBAS_Rat>
active

>  <ActivityScore_CPDBAS_Mouse>
0

>  <TD50_Mouse_Note>
no positive results

>  <TargetSites_Mouse_Male>
no positive results

>  <TargetSites_Mouse_Female>
no positive results

>  <ActivityOutcome_CPDBAS_Mouse>
inactive

>  <ActivityOutcome_CPDBAS_SingleCellCall>
active

>  <ChemicalPage_URL>
http://potency.berkeley.edu/chempages/FLUCONAZOLE.html

$$$$



 16 16  0  0  0  0  0  0  0  0999 V2000
    2.3025   -0.6631    0.0000 O   0  0  0  0  0  0  0  0  0  0  0  0
    2.3025   -1.9893    0.0000 C   0  0  0  0  0  0  0  0  0  0  0  0
    3.4537   -2.6617    0.0000 N   0  0  0  0  0  0  0  0  0  0  0  0
    4.6050   -1.9893    0.0000 C   0  0  0  0  0  0  0  0  0  0  0  0
    4.6050   -0.6631    0.0000 C   0  0  0  0  0  0  0  0  0  0  0  0
    5.7562    0.0000    0.0000 C   0  0  0  0  0  0  0  0  0  0  0  0
    6.9074   -0.6631    0.0000 C   0  0  0  0  0  0  0  0  0  0  0  0
    6.9074   -1.9893    0.0000 C   0  0  0  0  0  0  0  0  0  0  0  0
    5.7562   -2.6617    0.0000 C   0  0  0  0  0  0  0  0  0  0  0  0
    8.0587   -2.6617    0.0000 C   0  0  0  0  0  0  0  0  0  0  0  0
    7.3956   -3.8129    0.0000 F   0  0  0  0  0  0  0  0  0  0  0  0
    8.7218   -1.5104    0.0000 F   0  0  0  0  0  0  0  0  0  0  0  0
    9.2099   -3.3248    0.0000 F   0  0  0  0  0  0  0  0  0  0  0  0
    1.1512   -2.6617    0.0000 N   0  0  0  0  0  0  0  0  0  0  0  0
    1.1512   -3.9879    0.0000 C   0  0  0  0  0  0  0  0  0  0  0  0
    0.0000   -1.9893    0.0000 C   0  0  0  0  0  0  0  0  0  0  0  0
  1  2  2  0  0  0  0
  2  3  1  0  0  0  0
  2 14  1  0  0  0  0
  3  4  1  0  0  0  0
  4  5  2  0  0  0  0
  4  9  1  0  0  0  0
  5  6  1  0  0  0  0
  6  7  2  0  0  0  0
  7  8  1  0  0  0  0
  8  9  2  0  0  0  0
  8 10  1  0  0  0  0
 10 11  1  0  0  0  0
 10 12  1  0  0  0  0
 10 13  1  0  0  0  0
 14 15  1  0  0  0  0
 14 16  1  0  0  0  0
M  END
>  <DSSTox_RID>
20628

>  <DSSTox_CID>
628

>  <DSSTox_Generic_SID>
20628

>  <DSSTox_FileID>
657_CPDBAS_v5d

>  <STRUCTURE_Formula>
C10H11F3N2O

>  <STRUCTURE_MolecularWeight>
232.2023

>  <STRUCTURE_ChemicalType>
defined organic

>  <STRUCTURE_TestedForm_DefinedOrganic>
parent

>  <STRUCTURE_Shown>
tested chemical

>  <TestSubstance_ChemicalName>
Fluometuron

>  <TestSubstance_CASRN>
2164-17-2

>  <TestSubstance_Description>
single chemical compound

>  <STRUCTURE_ChemicalName_IUPAC>
1,1-dimethyl-3-[3-(trifluoromethyl)phenyl]urea

>  <STRUCTURE_SMILES>
O=C(NC1=CC=CC(=C1)C(F)(F)F)N(C)C

>  <STRUCTURE_Parent_SMILES>
O=C(NC1=CC=CC(=C1)C(F)(F)F)N(C)C

>  <STRUCTURE_InChI>
InChI=1/C10H11F3N2O/c1-15(2)9(16)14-8-5-3-4-7(6-8)10(11,12)13/h3-6H,1-2H3,(H,14,16)/f/h14H

>  <STRUCTURE_InChIKey>
RZILCCPWPBTYDO-YHMJCDSICM

>  <StudyType>
Carcinogenicity

>  <Endpoint>
TD50; Tumor Target Sites

>  <Species>
rat; mouse

>  <ActivityOutcome_CPDBAS_Mutagenicity>
inactive

>  <ActivityScore_CPDBAS_Rat>
0

>  <TD50_Rat_Note>
no positive results

>  <TargetSites_Rat_Male>
no positive results

>  <TargetSites_Rat_Female>
no positive results

>  <ActivityOutcome_CPDBAS_Rat>
inactive

>  <ActivityScore_CPDBAS_Mouse>
0

>  <TD50_Mouse_Note>
no positive results

>  <TargetSites_Mouse_Male>
no positive results

>  <TargetSites_Mouse_Female>
no positive results

>  <ActivityOutcome_CPDBAS_Mouse>
inactive

>  <ActivityOutcome_CPDBAS_SingleCellCall>
inactive

>  <ActivityOutcome_CPDBAS_MultiCellCall>
inactive

>  <ActivityOutcome_CPDBAS_MultiCellCall_Details>
multisex inactive; multispecies inactive

>  <NTP_TechnicalReport>
TR 195

>  <ChemicalPage_URL>
http://potency.berkeley.edu/chempages/FLUOMETURON.html

$$$$



 20 22  0  0  0  0  0  0  0  0999 V2000
    0.1772    0.0000    0.0000 O   0  0  0  0  0  0  0  0  0  0  0  0
    1.3289   -0.6694    0.0000 C   0  0  0  0  0  0  0  0  0  0  0  0
    2.4807    0.0000    0.0000 N   0  0  0  0  0  0  0  0  0  0  0  0
    3.6324   -0.6694    0.0000 C   0  0  0  0  0  0  0  0  0  0  0  0
    3.6324   -1.9983    0.0000 C   0  0  0  0  0  0  0  0  0  0  0  0
    4.7842   -2.6579    0.0000 C   0  0  0  0  0  0  0  0  0  0  0  0
    5.9359   -1.9983    0.0000 C   0  0  0  0  0  0  0  0  0  0  0  0
    7.1959   -2.4118    0.0000 C   0  0  0  0  0  0  0  0  0  0  0  0
    7.9834   -1.3289    0.0000 C   0  0  0  0  0  0  0  0  0  0  0  0
    9.3025   -1.4667    0.0000 C   0  0  0  0  0  0  0  0  0  0  0  0
    9.8439   -2.6874    0.0000 C   0  0  0  0  0  0  0  0  0  0  0  0
    9.0663   -3.7604    0.0000 C   0  0  0  0  0  0  0  0  0  0  0  0
    7.7373   -3.6226    0.0000 C   0  0  0  0  0  0  0  0  0  0  0  0
    7.1959   -0.2559    0.0000 C   0  0  0  0  0  0  0  0  0  0  0  0
    5.9359   -0.6694    0.0000 C   0  0  0  0  0  0  0  0  0  0  0  0
    4.7842    0.0000    0.0000 C   0  0  0  0  0  0  0  0  0  0  0  0
    1.3289   -1.9983    0.0000 C   0  0  0  0  0  0  0  0  0  0  0  0
    2.6579   -1.9983    0.0000 F   0  0  0  0  0  0  0  0  0  0  0  0
    1.3289   -3.3272    0.0000 F   0  0  0  0  0  0  0  0  0  0  0  0
    0.0000   -1.9983    0.0000 F   0  0  0  0  0  0  0  0  0  0  0  0
  1  2  2  0  0  0  0
  2  3  1  0  0  0  0
  2 17  1  0  0  0  0
  3  4  1  0  0  0  0
  4  5  1  0  0  0  0
  4 16  2  0  0  0  0
  5  6  2  0  0  0  0
  6  7  1  0  0  0  0
  7  8  1  0  0  0  0
  7 15  2  0  0  0  0
  8  9  1  0  0  0  0
  8 13  2  0  0  0  0
  9 10  2  0  0  0  0
  9 14  1  0  0  0  0
 10 11  1  0  0  0  0
 11 12  2  0  0  0  0
 12 13  1  0  0  0  0
 14 15  1  0  0  0  0
 15 16  1  0  0  0  0
 17 18  1  0  0  0  0
 17 19  1  0  0  0  0
 17 20  1  0  0  0  0
M  END
>  <DSSTox_RID>
20629

>  <DSSTox_CID>
629

>  <DSSTox_Generic_SID>
20629

>  <DSSTox_FileID>
658_CPDBAS_v5d

>  <STRUCTURE_Formula>
C15H10F3NO

>  <STRUCTURE_MolecularWeight>
277.2453

>  <STRUCTURE_ChemicalType>
defined organic

>  <STRUCTURE_TestedForm_DefinedOrganic>
parent

>  <STRUCTURE_Shown>
tested chemical

>  <TestSubstance_ChemicalName>
N-(2-Fluorenyl)-2,2,2-trifluoroacetamide

>  <TestSubstance_CASRN>
363-17-7

>  <TestSubstance_Description>
single chemical compound

>  <STRUCTURE_ChemicalName_IUPAC>
N-9H-fluoren-2-yl-2,2,2-trifluoroacetamide

>  <STRUCTURE_SMILES>
O=C(C(F)(F)F)NC1=CC3=C(C2=CC=CC=C2C3)C=C1

>  <STRUCTURE_Parent_SMILES>
O=C(C(F)(F)F)NC1=CC3=C(C2=CC=CC=C2C3)C=C1

>  <STRUCTURE_InChI>
InChI=1/C15H10F3NO/c16-15(17,18)14(20)19-11-5-6-13-10(8-11)7-9-3-1-2-4-12(9)13/h1-6,8H,7H2,(H,19,20)/f/h19H

>  <STRUCTURE_InChIKey>
XPHPBNGAXWJHHP-LILDFLRNCF

>  <StudyType>
Carcinogenicity

>  <Endpoint>
TD50; Tumor Target Sites

>  <Species>
rat

>  <TD50_Rat_mg>
1.62

>  <TD50_Rat_mmol>
0.00584

>  <ActivityScore_CPDBAS_Rat>
49

>  <TargetSites_Rat_Female>
ear Zymbals gland; liver; mammary gland

>  <ActivityOutcome_CPDBAS_Rat>
active

>  <ActivityOutcome_CPDBAS_SingleCellCall>
active

>  <ActivityOutcome_CPDBAS_MultiCellCall>
active

>  <ActivityOutcome_CPDBAS_MultiCellCall_Details>
multisite active

>  <ChemicalPage_URL>
http://potency.berkeley.edu/chempages/N-(2-FLUORENYL)-2,2,2-TRIFLUOROACETAMIDE.html

$$$$



 14 15  0  0  0  0  0  0  0  0999 V2000
    9.3153   -1.1458    0.0000 N   0  0  0  0  0  0  0  0  0  0  0  0
    7.9832   -1.1458    0.0000 C   0  0  0  0  0  0  0  0  0  0  0  0
    7.3218   -2.3009    0.0000 C   0  0  0  0  0  0  0  0  0  0  0  0
    5.9897   -2.3009    0.0000 C   0  0  0  0  0  0  0  0  0  0  0  0
    5.3190   -1.1458    0.0000 C   0  0  0  0  0  0  0  0  0  0  0  0
    5.9897    0.0000    0.0000 C   0  0  0  0  0  0  0  0  0  0  0  0
    7.3218    0.0000    0.0000 C   0  0  0  0  0  0  0  0  0  0  0  0
    3.9963   -1.1458    0.0000 C   0  0  0  0  0  0  0  0  0  0  0  0
    3.3256   -2.3009    0.0000 C   0  0  0  0  0  0  0  0  0  0  0  0
    1.9935   -2.3009    0.0000 C   0  0  0  0  0  0  0  0  0  0  0  0
    1.3321   -1.1458    0.0000 C   0  0  0  0  0  0  0  0  0  0  0  0
    1.9935    0.0000    0.0000 C   0  0  0  0  0  0  0  0  0  0  0  0
    3.3256    0.0000    0.0000 C   0  0  0  0  0  0  0  0  0  0  0  0
    0.0000   -1.1458    0.0000 F   0  0  0  0  0  0  0  0  0  0  0  0
  1  2  1  0  0  0  0
  2  3  2  0  0  0  0
  2  7  1  0  0  0  0
  3  4  1  0  0  0  0
  4  5  2  0  0  0  0
  5  6  1  0  0  0  0
  5  8  1  0  0  0  0
  6  7  2  0  0  0  0
  8  9  2  0  0  0  0
  8 13  1  0  0  0  0
  9 10  1  0  0  0  0
 10 11  2  0  0  0  0
 11 12  1  0  0  0  0
 11 14  1  0  0  0  0
 12 13  2  0  0  0  0
M  END
>  <DSSTox_RID>
20631

>  <DSSTox_CID>
631

>  <DSSTox_Generic_SID>
20631

>  <DSSTox_FileID>
660_CPDBAS_v5d

>  <STRUCTURE_Formula>
C12H10FN

>  <STRUCTURE_MolecularWeight>
187.2161

>  <STRUCTURE_ChemicalType>
defined organic

>  <STRUCTURE_TestedForm_DefinedOrganic>
parent

>  <STRUCTURE_Shown>
tested chemical

>  <TestSubstance_ChemicalName>
4'-Fluoro-4-aminodiphenyl

>  <TestSubstance_CASRN>
324-93-6

>  <TestSubstance_Description>
single chemical compound

>  <STRUCTURE_ChemicalName_IUPAC>
4'-fluorobiphenyl-4-amine

>  <STRUCTURE_SMILES>
NC1=CC=C(C=C1)C2=CC=C(C=C2)F

>  <STRUCTURE_Parent_SMILES>
NC1=CC=C(C=C1)C2=CC=C(C=C2)F

>  <STRUCTURE_InChI>
InChI=1/C12H10FN/c13-11-5-1-9(2-6-11)10-3-7-12(14)8-4-10/h1-8H,14H2

>  <STRUCTURE_InChIKey>
HTRVALPKPVGOSZ-UHFFFAOYAC

>  <StudyType>
Carcinogenicity

>  <Endpoint>
TD50; Tumor Target Sites

>  <Species>
mouse

>  <TD50_Mouse_mg>
1.14

>  <TD50_Mouse_mmol>
0.00609

>  <ActivityScore_CPDBAS_Mouse>
53

>  <TD50_Mouse_Note>
TD50 is harmonic mean of more than one positive test

>  <TargetSites_Mouse_Male>
liver

>  <TargetSites_Mouse_Female>
liver

>  <ActivityOutcome_CPDBAS_Mouse>
active

>  <ActivityOutcome_CPDBAS_SingleCellCall>
active

>  <ActivityOutcome_CPDBAS_MultiCellCall>
active

>  <ActivityOutcome_CPDBAS_MultiCellCall_Details>
multisex active

>  <ChemicalPage_URL>
http://potency.berkeley.edu/chempages/4'-FLUORO-4-AMINODIPHENYL.html

$$$$



 17 18  0  0  0  0  0  0  0  0999 V2000
    0.0000   -1.1522    0.0000 C   0  0  0  0  0  0  0  0  0  0  0  0
    1.3329   -1.1522    0.0000 C   0  0  0  0  0  0  0  0  0  0  0  0
    1.9881   -2.3044    0.0000 N   0  0  0  0  0  0  0  0  0  0  0  0
    3.3210   -2.3044    0.0000 C   0  0  0  0  0  0  0  0  0  0  0  0
    3.9874   -1.1522    0.0000 C   0  0  0  0  0  0  0  0  0  0  0  0
    5.3203   -1.1522    0.0000 C   0  0  0  0  0  0  0  0  0  0  0  0
    5.9755   -2.3044    0.0000 C   0  0  0  0  0  0  0  0  0  0  0  0
    7.3084   -2.3044    0.0000 C   0  0  0  0  0  0  0  0  0  0  0  0
    7.9749   -1.1522    0.0000 C   0  0  0  0  0  0  0  0  0  0  0  0
    9.3078   -1.1522    0.0000 C   0  0  0  0  0  0  0  0  0  0  0  0
    9.9629   -2.3044    0.0000 C   0  0  0  0  0  0  0  0  0  0  0  0
   11.2959   -2.3044    0.0000 F   0  0  0  0  0  0  0  0  0  0  0  0
    9.3078   -3.4565    0.0000 C   0  0  0  0  0  0  0  0  0  0  0  0
    7.9749   -3.4565    0.0000 C   0  0  0  0  0  0  0  0  0  0  0  0
    5.3203   -3.4565    0.0000 C   0  0  0  0  0  0  0  0  0  0  0  0
    3.9874   -3.4565    0.0000 C   0  0  0  0  0  0  0  0  0  0  0  0
    1.9881    0.0000    0.0000 O   0  0  0  0  0  0  0  0  0  0  0  0
  1  2  1  0  0  0  0
  2  3  1  0  0  0  0
  2 17  2  0  0  0  0
  3  4  1  0  0  0  0
  4  5  2  0  0  0  0
  4 16  1  0  0  0  0
  5  6  1  0  0  0  0
  6  7  2  0  0  0  0
  7  8  1  0  0  0  0
  7 15  1  0  0  0  0
  8  9  2  0  0  0  0
  8 14  1  0  0  0  0
  9 10  1  0  0  0  0
 10 11  2  0  0  0  0
 11 12  1  0  0  0  0
 11 13  1  0  0  0  0
 13 14  2  0  0  0  0
 15 16  2  0  0  0  0
M  END
>  <DSSTox_RID>
20632

>  <DSSTox_CID>
632

>  <DSSTox_Generic_SID>
20632

>  <DSSTox_FileID>
661_CPDBAS_v5d

>  <STRUCTURE_Formula>
C14H12FNO

>  <STRUCTURE_MolecularWeight>
229.2533

>  <STRUCTURE_ChemicalType>
defined organic

>  <STRUCTURE_TestedForm_DefinedOrganic>
parent

>  <STRUCTURE_Shown>
tested chemical

>  <TestSubstance_ChemicalName>
N-4-(4'-Fluorobiphenyl)acetamide

>  <TestSubstance_CASRN>
398-32-3

>  <TestSubstance_Description>
single chemical compound

>  <STRUCTURE_ChemicalName_IUPAC>
N-(4'-fluorobiphenyl-4-yl)acetamide

>  <STRUCTURE_SMILES>
CC(NC1=CC=C(C2=CC=C(F)C=C2)C=C1)=O

>  <STRUCTURE_Parent_SMILES>
CC(NC1=CC=C(C2=CC=C(F)C=C2)C=C1)=O

>  <STRUCTURE_InChI>
InChI=1/C14H12FNO/c1-10(17)16-14-8-4-12(5-9-14)11-2-6-13(15)7-3-11/h2-9H,1H3,(H,16,17)/f/h16H

>  <STRUCTURE_InChIKey>
JORMZLCKCZMVJM-WYUMXYHSCG

>  <StudyType>
Carcinogenicity

>  <Endpoint>
TD50; Tumor Target Sites

>  <Species>
rat

>  <TD50_Rat_mg>
1.01

>  <TD50_Rat_mmol>
0.00441

>  <ActivityScore_CPDBAS_Rat>
50

>  <TargetSites_Rat_Male>
kidney

>  <ActivityOutcome_CPDBAS_Rat>
active

>  <ActivityOutcome_CPDBAS_SingleCellCall>
active

>  <ChemicalPage_URL>
http://potency.berkeley.edu/chempages/N-4-(4'-FLUOROBIPHENYL)ACETAMIDE.html

$$$$



  9  8  0  0  0  0  0  0  0  0999 V2000
    1.1520    0.0000    0.0000 O   0  0  0  0  0  0  0  0  0  0  0  0
    2.3040   -0.6635    0.0000 C   0  0  0  0  0  0  0  0  0  0  0  0
    2.3040   -1.9953    0.0000 N   0  0  0  0  0  0  0  0  0  0  0  0
    3.4560   -2.6588    0.0000 C   0  0  0  0  0  0  0  0  0  0  0  0
    4.6080   -1.9953    0.0000 C   0  0  0  0  0  0  0  0  0  0  0  0
    4.6080   -0.6635    0.0000 F   0  0  0  0  0  0  0  0  0  0  0  0
    1.1520   -2.6588    0.0000 N   0  0  0  0  0  0  0  0  0  0  0  0
    0.0000   -1.9953    0.0000 O   0  0  0  0  0  0  0  0  0  0  0  0
    3.4560    0.0000    0.0000 N   0  0  0  0  0  0  0  0  0  0  0  0
  1  2  2  0  0  0  0
  2  3  1  0  0  0  0
  2  9  1  0  0  0  0
  3  4  1  0  0  0  0
  3  7  1  0  0  0  0
  4  5  1  0  0  0  0
  5  6  1  0  0  0  0
  7  8  2  0  0  0  0
M  END
>  <DSSTox_RID>
20633

>  <DSSTox_CID>
633

>  <DSSTox_Generic_SID>
20633

>  <DSSTox_FileID>
662_CPDBAS_v5d

>  <STRUCTURE_Formula>
C3H6FN3O2

>  <STRUCTURE_MolecularWeight>
135.0977

>  <STRUCTURE_ChemicalType>
defined organic

>  <STRUCTURE_TestedForm_DefinedOrganic>
parent

>  <STRUCTURE_Shown>
tested chemical

>  <TestSubstance_ChemicalName>
2-Fluoroethyl-nitrosourea

>  <TestSubstance_CASRN>
69112-98-7

>  <TestSubstance_Description>
single chemical compound

>  <STRUCTURE_ChemicalName_IUPAC>
1-(2-fluoroethyl)-1-nitrosourea

>  <STRUCTURE_SMILES>
O=C(N(CCF)N=O)N

>  <STRUCTURE_Parent_SMILES>
O=C(N(CCF)N=O)N

>  <STRUCTURE_InChI>
InChI=1/C3H6FN3O2/c4-1-2-7(6-9)3(5)8/h1-2H2,(H2,5,8)/f/h5H2

>  <STRUCTURE_InChIKey>
CVNSFWDAXAKBIM-GLFQYTTQCX

>  <StudyType>
Carcinogenicity

>  <Endpoint>
TD50; Tumor Target Sites

>  <Species>
rat

>  <TD50_Rat_mg>
0.125

>  <TD50_Rat_mmol>
0.000925

>  <ActivityScore_CPDBAS_Rat>
57

>  <TargetSites_Rat_Male>
stomach

>  <ActivityOutcome_CPDBAS_Rat>
active

>  <ActivityOutcome_CPDBAS_SingleCellCall>
active

>  <ChemicalPage_URL>
http://potency.berkeley.edu/chempages/2-FLUOROETHYL-NITROSOUREA.html

$$$$



  9  9  0  0  0  0  0  0  0  0999 V2000
    0.0000   -2.6589    0.0000 O   0  0  0  0  0  0  0  0  0  0  0  0
    1.1520   -1.9953    0.0000 C   0  0  0  0  0  0  0  0  0  0  0  0
    1.1520   -0.6636    0.0000 C   0  0  0  0  0  0  0  0  0  0  0  0
    2.3041    0.0000    0.0000 C   0  0  0  0  0  0  0  0  0  0  0  0
    3.4561   -0.6636    0.0000 N   0  0  0  0  0  0  0  0  0  0  0  0
    3.4561   -1.9953    0.0000 C   0  0  0  0  0  0  0  0  0  0  0  0
    4.6082   -2.6589    0.0000 O   0  0  0  0  0  0  0  0  0  0  0  0
    2.3041   -2.6589    0.0000 N   0  0  0  0  0  0  0  0  0  0  0  0
    0.0000    0.0000    0.0000 F   0  0  0  0  0  0  0  0  0  0  0  0
  1  2  2  0  0  0  0
  2  3  1  0  0  0  0
  2  8  1  0  0  0  0
  3  4  2  0  0  0  0
  3  9  1  0  0  0  0
  4  5  1  0  0  0  0
  5  6  1  0  0  0  0
  6  7  2  0  0  0  0
  6  8  1  0  0  0  0
M  END
>  <DSSTox_RID>
20634

>  <DSSTox_CID>
634

>  <DSSTox_Generic_SID>
20634

>  <DSSTox_FileID>
663_CPDBAS_v5d

>  <STRUCTURE_Formula>
C4H3FN2O2

>  <STRUCTURE_MolecularWeight>
130.0772

>  <STRUCTURE_ChemicalType>
defined organic

>  <STRUCTURE_TestedForm_DefinedOrganic>
parent

>  <STRUCTURE_Shown>
tested chemical

>  <TestSubstance_ChemicalName>
5-Fluorouracil

>  <TestSubstance_CASRN>
51-21-8

>  <TestSubstance_Description>
single chemical compound

>  <STRUCTURE_ChemicalName_IUPAC>
5-fluoropyrimidine-2,4(1H,3H)-dione

>  <STRUCTURE_SMILES>
O=C1C(=CNC(=O)N1)F

>  <STRUCTURE_Parent_SMILES>
O=C1C(=CNC(=O)N1)F

>  <STRUCTURE_InChI>
InChI=1/C4H3FN2O2/c5-2-1-6-4(9)7-3(2)8/h1H,(H2,6,7,8,9)/f/h6-7H

>  <STRUCTURE_InChIKey>
GHASVSINZRGABV-ZDKSUBDRCT

>  <StudyType>
Carcinogenicity

>  <Endpoint>
TD50; Tumor Target Sites

>  <Species>
rat; mouse

>  <ActivityOutcome_CPDBAS_Mutagenicity>
inactive

>  <ActivityScore_CPDBAS_Rat>
0

>  <TD50_Rat_Note>
no positive results

>  <TargetSites_Rat_Male>
no positive results

>  <TargetSites_Rat_Female>
no positive results

>  <ActivityOutcome_CPDBAS_Rat>
inactive

>  <TD50_Mouse_mg>
2.96

>  <TD50_Mouse_mmol>
0.0228

>  <ActivityScore_CPDBAS_Mouse>
47

>  <TD50_Mouse_Note>
TD50 is harmonic mean of more than one positive test

>  <TargetSites_Mouse_Male>
lung

>  <TargetSites_Mouse_Female>
hematopoietic system; lung

>  <ActivityOutcome_CPDBAS_Mouse>
active

>  <ActivityOutcome_CPDBAS_SingleCellCall>
active

>  <ActivityOutcome_CPDBAS_MultiCellCall>
active

>  <ActivityOutcome_CPDBAS_MultiCellCall_Details>
multisite active; multisex active

>  <Note_CPDBAS>
TD50_Mouse modified v3a

>  <ChemicalPage_URL>
http://potency.berkeley.edu/chempages/5-FLUOROURACIL.html

$$$$



 30 32  0  0  1  0  0  0  0  0999 V2000
    0.0000   -1.1558    0.0000 O   0  0  0  0  0  0  0  0  0  0  0  0
    1.3319   -1.1558    0.0000 C   0  0  0  0  0  0  0  0  0  0  0  0
    1.9924   -2.3006    0.0000 C   0  0  0  0  0  0  0  0  0  0  0  0
    3.3244   -2.3006    0.0000 C   0  0  1  0  0  0  0  0  0  0  0  0
    3.9848   -3.4565    0.0000 C   0  0  0  0  0  0  0  0  0  0  0  0
    5.3168   -3.4565    0.0000 C   0  0  1  0  0  0  0  0  0  0  0  0
    5.9883   -4.6013    0.0000 C   0  0  0  0  0  0  0  0  0  0  0  0
    5.3168   -5.7571    0.0000 C   0  0  0  0  0  0  0  0  0  0  0  0
    5.9883   -6.9129    0.0000 C   0  0  0  0  0  0  0  0  0  0  0  0
    5.4379   -8.1238    0.0000 C   0  0  0  0  0  0  0  0  0  0  0  0
    6.4286   -9.0154    0.0000 C   0  0  0  0  0  0  0  0  0  0  0  0
    7.5844   -8.3439    0.0000 C   0  0  0  0  0  0  0  0  0  0  0  0
    7.3092   -7.0450    0.0000 N   0  0  0  0  0  0  0  0  0  0  0  0
    8.2008   -6.0653    0.0000 C   0  0  0  0  0  0  0  0  0  0  0  0
    9.4998   -6.3405    0.0000 C   0  0  0  0  0  0  0  0  0  0  0  0
    7.7825   -4.7994    0.0000 C   0  0  0  0  0  0  0  0  0  0  0  0
    8.7292   -9.0154    0.0000 C   0  0  0  0  0  0  0  0  0  0  0  0
    8.7292  -10.3474    0.0000 C   0  0  0  0  0  0  0  0  0  0  0  0
    7.5844  -11.0078    0.0000 C   0  0  0  0  0  0  0  0  0  0  0  0
    6.4286  -10.3474    0.0000 C   0  0  0  0  0  0  0  0  0  0  0  0
    4.1390   -8.3990    0.0000 C   0  0  0  0  0  0  0  0  0  0  0  0
    3.7317   -9.6649    0.0000 C   0  0  0  0  0  0  0  0  0  0  0  0
    2.4327   -9.9401    0.0000 C   0  0  0  0  0  0  0  0  0  0  0  0
    1.5411   -8.9494    0.0000 C   0  0  0  0  0  0  0  0  0  0  0  0
    1.9484   -7.6835    0.0000 C   0  0  0  0  0  0  0  0  0  0  0  0
    3.2473   -7.4083    0.0000 C   0  0  0  0  0  0  0  0  0  0  0  0
    0.2422   -9.2246    0.0000 F   0  0  0  0  0  0  0  0  0  0  0  0
    5.9883   -2.3006    0.0000 O   0  0  0  0  0  0  0  0  0  0  0  0
    3.9848   -1.1558    0.0000 O   0  0  0  0  0  0  0  0  0  0  0  0
    1.9924    0.0000    0.0000 O   0  0  0  0  0  0  0  0  0  0  0  0
  1  2  2  0  0  0  0
  2  3  1  0  0  0  0
  2 30  1  0  0  0  0
  3  4  1  0  0  0  0
  4  5  1  0  0  0  0
  4 29  1  6  0  0  0
  5  6  1  0  0  0  0
  6  7  1  0  0  0  0
  6 28  1  6  0  0  0
  7  8  2  0  0  0  0
  8  9  1  0  0  0  0
  9 10  2  0  0  0  0
  9 13  1  0  0  0  0
 10 11  1  0  0  0  0
 10 21  1  0  0  0  0
 11 12  2  0  0  0  0
 11 20  1  0  0  0  0
 12 13  1  0  0  0  0
 12 17  1  0  0  0  0
 13 14  1  0  0  0  0
 14 15  1  0  0  0  0
 14 16  1  0  0  0  0
 17 18  2  0  0  0  0
 18 19  1  0  0  0  0
 19 20  2  0  0  0  0
 21 22  2  0  0  0  0
 21 26  1  0  0  0  0
 22 23  1  0  0  0  0
 23 24  2  0  0  0  0
 24 25  1  0  0  0  0
 24 27  1  0  0  0  0
 25 26  2  0  0  0  0
M  END
>  <DSSTox_RID>
20636

>  <DSSTox_CID>
636

>  <DSSTox_Generic_SID>
20636

>  <DSSTox_FileID>
665_CPDBAS_v5d

>  <STRUCTURE_Formula>
C24H26FNO4

>  <STRUCTURE_MolecularWeight>
411.4659

>  <STRUCTURE_ChemicalType>
defined organic

>  <STRUCTURE_TestedForm_DefinedOrganic>
parent

>  <STRUCTURE_Shown>
tested chemical

>  <TestSubstance_ChemicalName>
Fluvastatin

>  <TestSubstance_CASRN>
93957-54-1

>  <TestSubstance_Description>
single chemical compound

>  <ChemicalNote>
stereochem

>  <STRUCTURE_ChemicalName_IUPAC>
(3R,5S,6E)-7-[3-(4-fluorophenyl)-1-(1-methylethyl)-1H-indol-2-yl]-3,5-dihydroxyhept-6-enoic acid

>  <STRUCTURE_SMILES>
O=C(C[C@@H](C[C@@H](/C=C/C1=C(C2=C(N1C(C)C)C=CC=C2)C3=CC=C(C=C3)F)O)O)O

>  <STRUCTURE_Parent_SMILES>
O=C(C[C@@H](C[C@@H](/C=C/C1=C(C2=C(N1C(C)C)C=CC=C2)C3=CC=C(C=C3)F)O)O)O

>  <STRUCTURE_InChI>
InChI=1/C24H26FNO4/c1-15(2)26-21-6-4-3-5-20(21)24(16-7-9-17(25)10-8-16)22(26)12-11-18(27)13-19(28)14-23(29)30/h3-12,15,18-19,27-28H,13-14H2,1-2H3,(H,29,30)/b12-11+/t18-,19-/m1/s1/f/h29H

>  <STRUCTURE_InChIKey>
FJLGEFLZQAZZCD-JJYPFDQXDN

>  <StudyType>
Carcinogenicity

>  <Endpoint>
TD50; Tumor Target Sites

>  <Species>
rat

>  <TD50_Rat_mg>
125

>  <TD50_Rat_mmol>
0.304

>  <ActivityScore_CPDBAS_Rat>
31

>  <TargetSites_Rat_Male>
thyroid gland

>  <TargetSites_Rat_Female>
no positive results

>  <ActivityOutcome_CPDBAS_Rat>
active

>  <ActivityOutcome_CPDBAS_SingleCellCall>
active

>  <ChemicalPage_URL>
http://potency.berkeley.edu/chempages/FLUVASTATIN.html

$$$$



  2  1  0  0  0  0  0  0  0  0999 V2000
    0.0000    0.0000    0.0000 C   0  0  0  0  0  0  0  0  0  0  0  0
    1.3300    0.0000    0.0000 O   0  0  0  0  0  0  0  0  0  0  0  0
  1  2  2  0  0  0  0
M  END
>  <DSSTox_RID>
20637

>  <DSSTox_CID>
637

>  <DSSTox_Generic_SID>
20637

>  <DSSTox_FileID>
666_CPDBAS_v5d

>  <STRUCTURE_Formula>
CH2O

>  <STRUCTURE_MolecularWeight>
30.026

>  <STRUCTURE_ChemicalType>
defined organic

>  <STRUCTURE_TestedForm_DefinedOrganic>
parent

>  <STRUCTURE_Shown>
tested chemical

>  <TestSubstance_ChemicalName>
Formaldehyde

>  <TestSubstance_CASRN>
50-00-0

>  <TestSubstance_Description>
single chemical compound

>  <STRUCTURE_ChemicalName_IUPAC>
formaldehyde

>  <STRUCTURE_SMILES>
C=O

>  <STRUCTURE_Parent_SMILES>
C=O

>  <STRUCTURE_InChI>
InChI=1/CH2O/c1-2/h1H2

>  <STRUCTURE_InChIKey>
WSFSSNUMVMOOMR-UHFFFAOYAT

>  <StudyType>
Carcinogenicity

>  <Endpoint>
TD50; Tumor Target Sites

>  <Species>
rat; mouse; hamster

>  <ActivityOutcome_CPDBAS_Mutagenicity>
active

>  <TD50_Rat_mg>
1.35

>  <TD50_Rat_mmol>
0.045

>  <ActivityScore_CPDBAS_Rat>
40

>  <TD50_Rat_Note>
TD50 is harmonic mean of more than one positive test; greater than ten-fold variation among TD50 values for positive results

>  <TargetSites_Rat_Male>
hematopoietic system; nasal cavity

>  <TargetSites_Rat_Female>
hematopoietic system; nasal cavity

>  <ActivityOutcome_CPDBAS_Rat>
active

>  <TD50_Mouse_mg>
43.9

>  <TD50_Mouse_mmol>
1.46

>  <ActivityScore_CPDBAS_Mouse>
26

>  <TargetSites_Mouse_Male>
nasal cavity

>  <TargetSites_Mouse_Female>
no positive results

>  <ActivityOutcome_CPDBAS_Mouse>
active

>  <ActivityScore_CPDBAS_Hamster>
0

>  <TD50_Hamster_Note>
no positive results

>  <TargetSites_Hamster_Male>
no positive results

>  <ActivityOutcome_CPDBAS_Hamster>
inactive

>  <ActivityOutcome_CPDBAS_SingleCellCall>
active

>  <ActivityOutcome_CPDBAS_MultiCellCall>
active

>  <ActivityOutcome_CPDBAS_MultiCellCall_Details>
multisite active; multisex active; multispecies active

>  <Note_CPDBAS>
TD50_Rat modified v2a

>  <ChemicalPage_URL>
http://potency.berkeley.edu/chempages/FORMALDEHYDE.html

$$$$



 14 15  0  0  0  0  0  0  0  0999 V2000
    5.7930   -1.4482    0.0000 C   0  0  0  0  0  0  0  0  0  0  0  0
    7.1221   -1.4482    0.0000 C   0  0  0  0  0  0  0  0  0  0  0  0
    7.9012   -0.3666    0.0000 O   0  0  0  0  0  0  0  0  0  0  0  0
    9.1661   -0.7791    0.0000 C   0  0  0  0  0  0  0  0  0  0  0  0
    9.1661   -2.1082    0.0000 C   0  0  0  0  0  0  0  0  0  0  0  0
    7.9012   -2.5207    0.0000 C   0  0  0  0  0  0  0  0  0  0  0  0
    5.0047   -2.5207    0.0000 C   0  0  0  0  0  0  0  0  0  0  0  0
    3.7398   -2.1082    0.0000 S   0  0  0  0  0  0  0  0  0  0  0  0
    3.7398   -0.7791    0.0000 C   0  0  0  0  0  0  0  0  0  0  0  0
    5.0047   -0.3666    0.0000 N   0  0  0  0  0  0  0  0  0  0  0  0
    2.6673    0.0000    0.0000 N   0  0  0  0  0  0  0  0  0  0  0  0
    1.4482   -0.5408    0.0000 N   0  0  0  0  0  0  0  0  0  0  0  0
    1.2374   -1.8516    0.0000 C   0  0  0  0  0  0  0  0  0  0  0  0
    0.0000   -2.3282    0.0000 O   0  0  0  0  0  0  0  0  0  0  0  0
  1  2  1  0  0  0  0
  1  7  2  0  0  0  0
  1 10  1  0  0  0  0
  2  3  1  0  0  0  0
  2  6  2  0  0  0  0
  3  4  1  0  0  0  0
  4  5  2  0  0  0  0
  5  6  1  0  0  0  0
  7  8  1  0  0  0  0
  8  9  1  0  0  0  0
  9 10  2  0  0  0  0
  9 11  1  0  0  0  0
 11 12  1  0  0  0  0
 12 13  1  0  0  0  0
 13 14  2  0  0  0  0
M  END
>  <DSSTox_RID>
20638

>  <DSSTox_CID>
638

>  <DSSTox_Generic_SID>
20638

>  <DSSTox_FileID>
667_CPDBAS_v5d

>  <STRUCTURE_Formula>
C8H7N3O2S

>  <STRUCTURE_MolecularWeight>
209.2222

>  <STRUCTURE_ChemicalType>
defined organic

>  <STRUCTURE_TestedForm_DefinedOrganic>
parent

>  <STRUCTURE_Shown>
tested chemical

>  <TestSubstance_ChemicalName>
Formic acid 2-[4-(2-furyl)-2-thiazolyl]hydrazide

>  <TestSubstance_CASRN>
31873-81-1

>  <TestSubstance_Description>
single chemical compound

>  <STRUCTURE_ChemicalName_IUPAC>
N'-(4-furan-2-yl-1,3-thiazol-2-yl)formic hydrazide

>  <STRUCTURE_SMILES>
O=CNNC1=NC(C2=CC=CO2)=CS1

>  <STRUCTURE_Parent_SMILES>
O=CNNC1=NC(C2=CC=CO2)=CS1

>  <STRUCTURE_InChI>
InChI=1/C8H7N3O2S/c12-5-9-11-8-10-6(4-14-8)7-2-1-3-13-7/h1-5H,(H,9,12)(H,10,11)/f/h9,11H

>  <STRUCTURE_InChIKey>
KXPLUKKFTHWPIA-FLKJISBTCT

>  <StudyType>
Carcinogenicity

>  <Endpoint>
TD50; Tumor Target Sites

>  <Species>
rat

>  <ActivityScore_CPDBAS_Rat>
0

>  <TD50_Rat_Note>
no positive results

>  <TargetSites_Rat_Female>
no positive results

>  <ActivityOutcome_CPDBAS_Rat>
inactive

>  <ActivityOutcome_CPDBAS_SingleCellCall>
inactive

>  <ChemicalPage_URL>
http://potency.berkeley.edu/chempages/FORMIC%20ACID%202-[4-(2-FURYL)-2-THIAZOLYL]HYDRAZIDE.html

$$$$



 10 10  0  0  0  0  0  0  0  0999 V2000
    1.3215   -1.5417    0.0000 C   0  0  0  0  0  0  0  0  0  0  0  0
    0.0000   -1.6862    0.0000 C   0  0  0  0  0  0  0  0  0  0  0  0
    1.9891   -0.3923    0.0000 C   0  0  0  0  0  0  0  0  0  0  0  0
    3.2899   -0.6676    0.0000 S   0  0  0  0  0  0  0  0  0  0  0  0
    3.4275   -1.9891    0.0000 C   0  0  0  0  0  0  0  0  0  0  0  0
    2.2093   -2.5328    0.0000 N   0  0  0  0  0  0  0  0  0  0  0  0
    4.5769   -2.6567    0.0000 N   0  0  0  0  0  0  0  0  0  0  0  0
    5.7332   -1.9891    0.0000 N   0  0  0  0  0  0  0  0  0  0  0  0
    5.7332   -0.6607    0.0000 C   0  0  0  0  0  0  0  0  0  0  0  0
    6.8826    0.0000    0.0000 O   0  0  0  0  0  0  0  0  0  0  0  0
  1  2  1  0  0  0  0
  1  3  2  0  0  0  0
  1  6  1  0  0  0  0
  3  4  1  0  0  0  0
  4  5  1  0  0  0  0
  5  6  2  0  0  0  0
  5  7  1  0  0  0  0
  7  8  1  0  0  0  0
  8  9  1  0  0  0  0
  9 10  2  0  0  0  0
M  END
>  <DSSTox_RID>
20639

>  <DSSTox_CID>
639

>  <DSSTox_Generic_SID>
20639

>  <DSSTox_FileID>
668_CPDBAS_v5d

>  <STRUCTURE_Formula>
C5H7N3OS

>  <STRUCTURE_MolecularWeight>
157.1898

>  <STRUCTURE_ChemicalType>
defined organic

>  <STRUCTURE_TestedForm_DefinedOrganic>
parent

>  <STRUCTURE_Shown>
tested chemical

>  <TestSubstance_ChemicalName>
Formic acid 2-(4-methyl-2-thiazolyl)hydrazide

>  <TestSubstance_CASRN>
32852-21-4

>  <TestSubstance_Description>
single chemical compound

>  <STRUCTURE_ChemicalName_IUPAC>
N'-(4-methyl-1,3-thiazol-2-yl)formic hydrazide

>  <STRUCTURE_SMILES>
C1(C)=CSC(=N1)NNC=O

>  <STRUCTURE_Parent_SMILES>
C1(C)=CSC(=N1)NNC=O

>  <STRUCTURE_InChI>
InChI=1/C5H7N3OS/c1-4-2-10-5(7-4)8-6-3-9/h2-3H,1H3,(H,6,9)(H,7,8)/f/h6,8H

>  <STRUCTURE_InChIKey>
YVPLYHWVALRLFV-HJYFZBQUCK

>  <StudyType>
Carcinogenicity

>  <Endpoint>
TD50; Tumor Target Sites

>  <Species>
rat

>  <TD50_Rat_mg>
14.4

>  <TD50_Rat_mmol>
0.0916

>  <ActivityScore_CPDBAS_Rat>
36

>  <TargetSites_Rat_Female>
mammary gland

>  <ActivityOutcome_CPDBAS_Rat>
active

>  <ActivityOutcome_CPDBAS_SingleCellCall>
active

>  <ChemicalPage_URL>
http://potency.berkeley.edu/chempages/FORMIC%20ACID%202-(4-METHYL-2-THIAZOLYL)HYDRAZIDE.html

$$$$



 17 18  0  0  0  0  0  0  0  0999 V2000
   11.3714   -1.9900    0.0000 O   0  5  0  0  0  0  0  0  0  0  0  0
   10.2229   -1.3304    0.0000 N   0  3  0  0  0  0  0  0  0  0  0  0
   10.2229    0.0000    0.0000 O   0  0  0  0  0  0  0  0  0  0  0  0
    9.0743   -1.9900    0.0000 C   0  0  0  0  0  0  0  0  0  0  0  0
    8.9265   -3.3204    0.0000 C   0  0  0  0  0  0  0  0  0  0  0  0
    7.6302   -3.5933    0.0000 C   0  0  0  0  0  0  0  0  0  0  0  0
    6.9706   -2.4448    0.0000 C   0  0  0  0  0  0  0  0  0  0  0  0
    7.8576   -1.4555    0.0000 O   0  0  0  0  0  0  0  0  0  0  0  0
    5.6402   -2.3084    0.0000 C   0  0  0  0  0  0  0  0  0  0  0  0
    4.7532   -3.2863    0.0000 C   0  0  0  0  0  0  0  0  0  0  0  0
    3.5365   -2.7519    0.0000 S   0  0  0  0  0  0  0  0  0  0  0  0
    3.6729   -1.4328    0.0000 C   0  0  0  0  0  0  0  0  0  0  0  0
    4.9807   -1.1485    0.0000 N   0  0  0  0  0  0  0  0  0  0  0  0
    2.6950   -0.5345    0.0000 N   0  0  0  0  0  0  0  0  0  0  0  0
    1.4442   -1.0121    0.0000 N   0  0  0  0  0  0  0  0  0  0  0  0
    1.2395   -2.3311    0.0000 C   0  0  0  0  0  0  0  0  0  0  0  0
    0.0000   -2.8087    0.0000 O   0  0  0  0  0  0  0  0  0  0  0  0
  1  2  1  0  0  0  0
  2  3  2  0  0  0  0
  2  4  1  0  0  0  0
  4  5  2  0  0  0  0
  4  8  1  0  0  0  0
  5  6  1  0  0  0  0
  6  7  2  0  0  0  0
  7  8  1  0  0  0  0
  7  9  1  0  0  0  0
  9 10  2  0  0  0  0
  9 13  1  0  0  0  0
 10 11  1  0  0  0  0
 11 12  1  0  0  0  0
 12 13  2  0  0  0  0
 12 14  1  0  0  0  0
 14 15  1  0  0  0  0
 15 16  1  0  0  0  0
 16 17  2  0  0  0  0
M  END
>  <DSSTox_RID>
20640

>  <DSSTox_CID>
640

>  <DSSTox_Generic_SID>
20640

>  <DSSTox_FileID>
669_CPDBAS_v5d

>  <STRUCTURE_Formula>
C8H6N4O4S

>  <STRUCTURE_MolecularWeight>
254.2198

>  <STRUCTURE_ChemicalType>
defined organic

>  <STRUCTURE_TestedForm_DefinedOrganic>
parent

>  <STRUCTURE_Shown>
tested chemical

>  <TestSubstance_ChemicalName>
Formic acid 2-[4-(5-nitro-2-furyl)-2-thiazolyl]hydrazide

>  <TestSubstance_CASRN>
3570-75-0

>  <TestSubstance_Description>
single chemical compound

>  <STRUCTURE_ChemicalName_IUPAC>
N'-[4-(5-nitrofuran-2-yl)-1,3-thiazol-2-yl]formic hydrazide

>  <STRUCTURE_SMILES>
[O-][N+](=O)C1=CC=C(O1)C2=CSC(=N2)NNC=O

>  <STRUCTURE_Parent_SMILES>
[O-][N+](=O)C1=CC=C(O1)C2=CSC(=N2)NNC=O

>  <STRUCTURE_InChI>
InChI=1/C8H6N4O4S/c13-4-9-11-8-10-5(3-17-8)6-1-2-7(16-6)12(14)15/h1-4H,(H,9,13)(H,10,11)/f/h9,11H

>  <STRUCTURE_InChIKey>
DUWYZHLZDVCZIO-FLKJISBTCG

>  <StudyType>
Carcinogenicity

>  <Endpoint>
TD50; Tumor Target Sites

>  <Species>
rat; mouse; hamster

>  <ActivityOutcome_CPDBAS_Mutagenicity>
active

>  <TD50_Rat_mg>
5.06

>  <TD50_Rat_mmol>
0.0199

>  <ActivityScore_CPDBAS_Rat>
43

>  <TD50_Rat_Note>
TD50 is harmonic mean of more than one positive test

>  <TargetSites_Rat_Male>
kidney; liver; mammary gland

>  <TargetSites_Rat_Female>
ear Zymbals gland; hematopoietic system; kidney; large intestine; liver; mammary gland; small intestine

>  <ActivityOutcome_CPDBAS_Rat>
active

>  <TD50_Mouse_mg>
10.8

>  <TD50_Mouse_mmol>
0.0425

>  <ActivityScore_CPDBAS_Mouse>
44

>  <TD50_Mouse_Note>
TD50 is harmonic mean of more than one positive test

>  <TargetSites_Mouse_Female>
hematopoietic system; stomach

>  <ActivityOutcome_CPDBAS_Mouse>
active

>  <TD50_Hamster_mg>
16.6

>  <TD50_Hamster_mmol>
0.0653

>  <ActivityScore_CPDBAS_Hamster>
55

>  <TargetSites_Hamster_Male>
stomach; urinary bladder

>  <ActivityOutcome_CPDBAS_Hamster>
active

>  <ActivityOutcome_CPDBAS_SingleCellCall>
active

>  <ActivityOutcome_CPDBAS_MultiCellCall>
active

>  <ActivityOutcome_CPDBAS_MultiCellCall_Details>
multisite active; multisex active; multispecies active

>  <ChemicalPage_URL>
http://potency.berkeley.edu/chempages/FORMIC%20ACID%202-[4-(5-NITRO-2-FURYL)-2-THIAZOLYL]HYD.html

$$$$



  7  6  0  0  0  0  0  0  0  0999 V2000
    5.7637   -1.9942    0.0000 N   0  0  0  0  0  0  0  0  0  0  0  0
    4.6110   -1.3314    0.0000 C   0  0  0  0  0  0  0  0  0  0  0  0
    4.6110    0.0000    0.0000 S   0  0  0  0  0  0  0  0  0  0  0  0
    3.4582   -1.9942    0.0000 N   0  0  0  0  0  0  0  0  0  0  0  0
    2.3055   -1.3314    0.0000 N   0  0  0  0  0  0  0  0  0  0  0  0
    1.1527   -1.9942    0.0000 C   0  0  0  0  0  0  0  0  0  0  0  0
    0.0000   -1.3314    0.0000 O   0  0  0  0  0  0  0  0  0  0  0  0
  1  2  1  0  0  0  0
  2  3  2  0  0  0  0
  2  4  1  0  0  0  0
  4  5  1  0  0  0  0
  5  6  1  0  0  0  0
  6  7  2  0  0  0  0
M  END
>  <DSSTox_RID>
20641

>  <DSSTox_CID>
641

>  <DSSTox_Generic_SID>
20641

>  <DSSTox_FileID>
670_CPDBAS_v5d

>  <STRUCTURE_Formula>
C2H5N3OS

>  <STRUCTURE_MolecularWeight>
119.141

>  <STRUCTURE_ChemicalType>
defined organic

>  <STRUCTURE_TestedForm_DefinedOrganic>
parent

>  <STRUCTURE_Shown>
tested chemical

>  <TestSubstance_ChemicalName>
1-Formyl-3-thiosemicarbazide

>  <TestSubstance_CASRN>
2302-84-3

>  <TestSubstance_Description>
single chemical compound

>  <STRUCTURE_ChemicalName_IUPAC>
2-formylhydrazinecarbothioamide

>  <STRUCTURE_SMILES>
NC(=S)NNC=O

>  <STRUCTURE_Parent_SMILES>
NC(=S)NNC=O

>  <STRUCTURE_InChI>
InChI=1/C2H5N3OS/c3-2(7)5-4-1-6/h1H,(H,4,6)(H3,3,5,7)/f/h4-5H,3H2

>  <STRUCTURE_InChIKey>
KSKPFCYLLBRSBQ-UOPBZGOQCD

>  <StudyType>
Carcinogenicity

>  <Endpoint>
TD50; Tumor Target Sites

>  <Species>
rat

>  <ActivityScore_CPDBAS_Rat>
0

>  <TD50_Rat_Note>
no positive results

>  <TargetSites_Rat_Female>
no positive results

>  <ActivityOutcome_CPDBAS_Rat>
inactive

>  <ActivityOutcome_CPDBAS_SingleCellCall>
inactive

>  <ChemicalPage_URL>
http://potency.berkeley.edu/chempages/1-FORMYL-3-THIOSEMICARBAZIDE.html

$$$$



  4  3  0  0  0  0  0  0  0  0999 V2000
    3.4575    0.0000    0.0000 O   0  0  0  0  0  0  0  0  0  0  0  0
    2.3061   -0.6638    0.0000 C   0  0  0  0  0  0  0  0  0  0  0  0
    1.1513    0.0000    0.0000 N   0  0  0  0  0  0  0  0  0  0  0  0
    0.0000   -0.6638    0.0000 N   0  0  0  0  0  0  0  0  0  0  0  0
  1  2  2  0  0  0  0
  2  3  1  0  0  0  0
  3  4  1  0  0  0  0
M  END
>  <DSSTox_RID>
20642

>  <DSSTox_CID>
642

>  <DSSTox_Generic_SID>
20642

>  <DSSTox_FileID>
671_CPDBAS_v5d

>  <STRUCTURE_Formula>
CH4N2O

>  <STRUCTURE_MolecularWeight>
60.0554

>  <STRUCTURE_ChemicalType>
defined organic

>  <STRUCTURE_TestedForm_DefinedOrganic>
parent

>  <STRUCTURE_Shown>
tested chemical

>  <TestSubstance_ChemicalName>
Formylhydrazine

>  <TestSubstance_CASRN>
624-84-0

>  <TestSubstance_Description>
single chemical compound

>  <STRUCTURE_ChemicalName_IUPAC>
formic hydrazide

>  <STRUCTURE_SMILES>
O=CNN

>  <STRUCTURE_Parent_SMILES>
O=CNN

>  <STRUCTURE_InChI>
InChI=1/CH4N2O/c2-3-1-4/h1H,2H2,(H,3,4)/f/h3H

>  <STRUCTURE_InChIKey>
XZBIXDPGRMLSTC-TULZNQERCJ

>  <StudyType>
Carcinogenicity

>  <Endpoint>
TD50; Tumor Target Sites

>  <Species>
mouse

>  <TD50_Mouse_mg>
36.4

>  <TD50_Mouse_mmol>
0.606

>  <ActivityScore_CPDBAS_Mouse>
31

>  <TD50_Mouse_Note>
TD50 is harmonic mean of more than one positive test; harmonic mean of TD50 includes a value for upper 99% confidence limit from study with 100% tumor incidence but no lifetable

>  <TargetSites_Mouse_Male>
lung

>  <TargetSites_Mouse_Female>
lung

>  <ActivityOutcome_CPDBAS_Mouse>
active

>  <ActivityOutcome_CPDBAS_SingleCellCall>
active

>  <ActivityOutcome_CPDBAS_MultiCellCall>
active

>  <ActivityOutcome_CPDBAS_MultiCellCall_Details>
multisex active

>  <Note_CPDBAS>
TD50_Mouse_Note modified v5a

>  <ChemicalPage_URL>
http://potency.berkeley.edu/chempages/FORMYLHYDRAZINE.html

$$$$



 50 49  0  0  1  0  0  0  0  0999 V2000
    8.0884   -2.0100    0.0000 C   0  0  2  0  0  0  0  0  0  0  0  0
    9.2266   -2.6639    0.0000 C   0  0  2  0  0  0  0  0  0  0  0  0
    6.9260   -2.6639    0.0000 O   0  0  0  0  0  0  0  0  0  0  0  0
    8.0884   -0.6781    0.0000 C   0  0  2  0  0  0  0  0  0  0  0  0
    9.2266   -3.9958    0.0000 O   0  0  0  0  0  0  0  0  0  0  0  0
   10.3891   -2.0100    0.0000 C   0  0  0  0  0  0  0  0  0  0  0  0
    5.7636   -2.0100    0.0000 C   0  0  0  0  0  0  0  0  0  0  0  0
    9.2266    0.0000    0.0000 C   0  0  0  0  0  0  0  0  0  0  0  0
    6.9260    0.0000    0.0000 C   0  0  0  0  0  0  0  0  0  0  0  0
    8.0884   -4.6739    0.0000 C   0  0  0  0  0  0  0  0  0  0  0  0
   11.5515   -2.6639    0.0000 C   0  0  1  0  0  0  0  0  0  0  0  0
    4.6012   -2.6639    0.0000 C   0  0  0  0  0  0  0  0  0  0  0  0
    5.7636   -0.6781    0.0000 O   0  0  0  0  0  0  0  0  0  0  0  0
   10.3891   -0.6781    0.0000 C   0  0  0  0  0  0  0  0  0  0  0  0
    6.9260   -3.9958    0.0000 C   0  0  0  0  0  0  0  0  0  0  0  0
    8.0884   -6.0058    0.0000 O   0  0  0  0  0  0  0  0  0  0  0  0
   12.6897   -2.0100    0.0000 C   0  0  0  0  0  0  0  0  0  0  0  0
   11.5515   -3.9958    0.0000 C   0  0  0  0  0  0  0  0  0  0  0  0
    3.4630   -2.0100    0.0000 C   0  0  2  0  0  0  0  0  0  0  0  0
   11.5515    0.0000    0.0000 C   0  0  0  0  0  0  0  0  0  0  0  0
    5.7636   -4.6739    0.0000 C   0  0  2  0  0  0  0  0  0  0  0  0
   13.8279   -2.6639    0.0000 C   0  0  2  0  0  0  0  0  0  0  0  0
    2.3248   -2.6639    0.0000 C   0  0  0  0  0  0  0  0  0  0  0  0
    3.4630   -0.6781    0.0000 C   0  0  0  0  0  0  0  0  0  0  0  0
   12.6897   -0.6781    0.0000 C   0  0  0  0  0  0  0  0  0  0  0  0
    4.6012   -3.9958    0.0000 C   0  0  0  0  0  0  0  0  0  0  0  0
    5.7636   -6.0058    0.0000 C   0  0  0  0  0  0  0  0  0  0  0  0
   14.9903   -2.0100    0.0000 C   0  0  0  0  0  0  0  0  0  0  0  0
   13.8279   -3.9958    0.0000 O   0  0  0  0  0  0  0  0  0  0  0  0
    1.1624   -2.0100    0.0000 C   0  0  0  0  0  0  0  0  0  0  0  0
    4.6012    0.0000    0.0000 O   0  0  0  0  0  0  0  0  0  0  0  0
    2.3248    0.0000    0.0000 O   0  0  0  0  0  0  0  0  0  0  0  0
    3.4630   -4.6739    0.0000 C   0  0  0  0  0  0  0  0  0  0  0  0
    4.6012   -6.6597    0.0000 O   0  0  0  0  0  0  0  0  0  0  0  0
    6.9260   -6.6597    0.0000 O   0  0  0  0  0  0  0  0  0  0  0  0
   16.1527   -2.6639    0.0000 C   0  0  0  0  0  0  0  0  0  0  0  0
    1.1624   -0.6781    0.0000 O   0  0  0  0  0  0  0  0  0  0  0  0
    0.0000   -2.6639    0.0000 O   0  0  0  0  0  0  0  0  0  0  0  0
    2.3248   -3.9958    0.0000 O   0  0  0  0  0  0  0  0  0  0  0  0
    3.4630   -6.0058    0.0000 O   0  0  0  0  0  0  0  0  0  0  0  0
   17.3151   -2.0100    0.0000 C   0  0  0  0  0  0  0  0  0  0  0  0
   18.4533   -2.6639    0.0000 C   0  0  0  0  0  0  0  0  0  0  0  0
   19.6157   -2.0100    0.0000 C   0  0  2  0  0  0  0  0  0  0  0  0
   20.7539   -2.6639    0.0000 C   0  0  0  0  0  0  0  0  0  0  0  0
   19.6157   -0.6781    0.0000 O   0  0  0  0  0  0  0  0  0  0  0  0
   21.9163   -2.0100    0.0000 C   0  0  1  0  0  0  0  0  0  0  0  0
   23.0545   -2.6639    0.0000 C   0  0  2  0  0  0  0  0  0  0  0  0
   21.9163   -0.6781    0.0000 O   0  0  0  0  0  0  0  0  0  0  0  0
   24.2169   -2.0100    0.0000 C   0  0  0  0  0  0  0  0  0  0  0  0
   23.0545   -3.9958    0.0000 N   0  0  0  0  0  0  0  0  0  0  0  0
  1  2  1  0  0  0  0
  1  3  1  6  0  0  0
  1  4  1  0  0  0  0
  2  5  1  1  0  0  0
  2  6  1  0  0  0  0
  3  7  1  0  0  0  0
  4  8  1  0  0  0  0
  4  9  1  1  0  0  0
  5 10  1  0  0  0  0
  6 11  1  0  0  0  0
  7 12  1  0  0  0  0
  7 13  2  0  0  0  0
  8 14  1  0  0  0  0
 10 15  1  0  0  0  0
 10 16  2  0  0  0  0
 11 17  1  0  0  0  0
 11 18  1  1  0  0  0
 12 19  1  0  0  0  0
 14 20  1  0  0  0  0
 15 21  1  0  0  0  0
 17 22  1  0  0  0  0
 19 23  1  0  0  0  0
 19 24  1  6  0  0  0
 20 25  1  0  0  0  0
 21 26  1  0  0  0  0
 21 27  1  1  0  0  0
 22 28  1  0  0  0  0
 22 29  1  6  0  0  0
 23 30  1  0  0  0  0
 24 31  1  0  0  0  0
 24 32  2  0  0  0  0
 26 33  1  0  0  0  0
 27 34  1  0  0  0  0
 27 35  2  0  0  0  0
 28 36  1  0  0  0  0
 30 37  1  0  0  0  0
 30 38  2  0  0  0  0
 33 39  1  0  0  0  0
 33 40  2  0  0  0  0
 36 41  1  0  0  0  0
 41 42  1  0  0  0  0
 42 43  1  0  0  0  0
 43 44  1  0  0  0  0
 43 45  1  1  0  0  0
 44 46  1  0  0  0  0
 46 47  1  0  0  0  0
 46 48  1  6  0  0  0
 47 49  1  0  0  0  0
 47 50  1  6  0  0  0
M  END
>  <DSSTox_RID>
20644

>  <DSSTox_CID>
644

>  <DSSTox_Generic_SID>
20644

>  <DSSTox_FileID>
673_CPDBAS_v5d

>  <STRUCTURE_Formula>
C34H59NO15

>  <STRUCTURE_MolecularWeight>
721.83

>  <STRUCTURE_ChemicalType>
defined organic

>  <STRUCTURE_TestedForm_DefinedOrganic>
parent

>  <STRUCTURE_Shown>
tested chemical

>  <TestSubstance_ChemicalName>
Fumonisin B1

>  <TestSubstance_CASRN>
116355-83-0

>  <TestSubstance_Description>
single chemical compound

>  <ChemicalNote>
stereochem

>  <STRUCTURE_ChemicalName_IUPAC>
(2S,2'S)-2,2'-{[(5S,6R,7R,9R,11S,16R,18S,19S)-19-amino-11,16,18-trihydroxy-5,9-dimethylicosane-6,7-diyl]bis[oxy(2-oxoethane-2,1-diyl)]}dibutanedioic acid

>  <STRUCTURE_SMILES>
O=C(C[C@@H]([C@@](O)=O)CC(O)=O)O[C@H]([C@@H](C)CCCC)[C@@H](C[C@H](C)C[C@@H](O)CCCC[C@@H](O)C[C@H](O)[C@@H](N)C)OC(C[C@@H]([C@@](O)=O)CC(O)=O)=O

>  <STRUCTURE_Parent_SMILES>
O=C(C[C@@H]([C@@](O)=O)CC(O)=O)O[C@H]([C@@H](C)CCCC)[C@@H](C[C@H](C)C[C@@H](O)CCCC[C@@H](O)C[C@H](O)[C@@H](N)C)OC(C[C@@H]([C@@](O)=O)CC(O)=O)=O

>  <STRUCTURE_InChI>
InChI=1/C34H59NO15/c1-5-6-9-20(3)32(50-31(44)17-23(34(47)48)15-29(41)42)27(49-30(43)16-22(33(45)46)14-28(39)40)13-19(2)12-24(36)10-7-8-11-25(37)18-26(38)21(4)35/h19-27,32,36-38H,5-18,35H2,1-4H3,(H,39,40)(H,41,42)(H,45,46)(H,47,48)/t19-,20+,21+,22+,23+,24+,25-,26+,27-,32-/m1/s1/f/h39,41,45,47H

>  <STRUCTURE_InChIKey>
UVBUBMSSQKOIBE-DDUPHIFJDS

>  <StudyType>
Carcinogenicity

>  <Endpoint>
TD50; Tumor Target Sites

>  <Species>
rat; mouse

>  <ActivityOutcome_CPDBAS_Mutagenicity>
inactive

>  <TD50_Rat_mg>
1.5

>  <TD50_Rat_mmol>
0.00208

>  <ActivityScore_CPDBAS_Rat>
53

>  <TD50_Rat_Note>
TD50 is harmonic mean of more than one positive test

>  <TargetSites_Rat_Male>
kidney; liver

>  <TargetSites_Rat_Female>
no positive results

>  <ActivityOutcome_CPDBAS_Rat>
active

>  <TD50_Mouse_mg>
6.79

>  <TD50_Mouse_mmol>
0.00941

>  <ActivityScore_CPDBAS_Mouse>
51

>  <TargetSites_Mouse_Male>
no positive results

>  <TargetSites_Mouse_Female>
liver

>  <ActivityOutcome_CPDBAS_Mouse>
active

>  <ActivityOutcome_CPDBAS_SingleCellCall>
active

>  <ActivityOutcome_CPDBAS_MultiCellCall>
active

>  <ActivityOutcome_CPDBAS_MultiCellCall_Details>
multisite active; multisex active; multispecies active

>  <Note_CPDBAS>
Rat modified v5a; Mouse added v5a; structure modified v5b

>  <ChemicalPage_URL>
http://potency.berkeley.edu/chempages/FUMONISIN%20B1.html

$$$$



 11 11  0  0  0  0  0  0  0  0999 V2000
    0.0000   -2.2640    0.0000 N   0  0  0  0  0  0  0  0  0  0  0  0
    1.1477   -1.5958    0.0000 C   0  0  0  0  0  0  0  0  0  0  0  0
    1.1477   -0.2673    0.0000 O   0  0  0  0  0  0  0  0  0  0  0  0
    2.3033   -2.2640    0.0000 N   0  0  0  0  0  0  0  0  0  0  0  0
    3.4511   -1.5958    0.0000 N   0  0  0  0  0  0  0  0  0  0  0  0
    4.6067   -2.2640    0.0000 C   0  0  0  0  0  0  0  0  0  0  0  0
    5.7544   -1.5958    0.0000 C   0  0  0  0  0  0  0  0  0  0  0  0
    5.8959   -0.2751    0.0000 C   0  0  0  0  0  0  0  0  0  0  0  0
    7.1930    0.0000    0.0000 C   0  0  0  0  0  0  0  0  0  0  0  0
    7.8612   -1.1556    0.0000 C   0  0  0  0  0  0  0  0  0  0  0  0
    6.9729   -2.1382    0.0000 O   0  0  0  0  0  0  0  0  0  0  0  0
  1  2  1  0  0  0  0
  2  3  2  0  0  0  0
  2  4  1  0  0  0  0
  4  5  1  0  0  0  0
  5  6  2  0  0  0  0
  6  7  1  0  0  0  0
  7  8  2  0  0  0  0
  7 11  1  0  0  0  0
  8  9  1  0  0  0  0
  9 10  2  0  0  0  0
 10 11  1  0  0  0  0
M  END
>  <DSSTox_RID>
20645

>  <DSSTox_CID>
645

>  <DSSTox_Generic_SID>
20645

>  <DSSTox_FileID>
674_CPDBAS_v5d

>  <STRUCTURE_Formula>
C6H7N3O2

>  <STRUCTURE_MolecularWeight>
153.1402

>  <STRUCTURE_ChemicalType>
defined organic

>  <STRUCTURE_TestedForm_DefinedOrganic>
parent

>  <STRUCTURE_Shown>
tested chemical

>  <TestSubstance_ChemicalName>
2-Furaldehyde semicarbazone

>  <TestSubstance_CASRN>
2411-74-7

>  <TestSubstance_Description>
single chemical compound

>  <STRUCTURE_ChemicalName_IUPAC>
furan-2-carbaldehyde semicarbazone

>  <STRUCTURE_SMILES>
NC(=O)NN=CC1=CC=CO1

>  <STRUCTURE_Parent_SMILES>
NC(=O)NN=CC1=CC=CO1

>  <STRUCTURE_InChI>
InChI=1/C6H7N3O2/c7-6(10)9-8-4-5-2-1-3-11-5/h1-4H,(H3,7,9,10)/b8-4+/f/h9H,7H2

>  <STRUCTURE_InChIKey>
BAOXJBYPTRZNSH-ZHNCBJFODM

>  <StudyType>
Carcinogenicity

>  <Endpoint>
TD50; Tumor Target Sites

>  <Species>
rat

>  <ActivityScore_CPDBAS_Rat>
0

>  <TD50_Rat_Note>
no positive results

>  <TargetSites_Rat_Female>
no positive results

>  <ActivityOutcome_CPDBAS_Rat>
inactive

>  <ActivityOutcome_CPDBAS_SingleCellCall>
inactive

>  <ChemicalPage_URL>
http://potency.berkeley.edu/chempages/2-FURALDEHYDE%20SEMICARBAZONE.html

$$$$



  5  5  0  0  0  0  0  0  0  0999 V2000
    1.7409    0.0000    0.0000 C   0  0  0  0  0  0  0  0  0  0  0  0
    2.1519   -1.2653    0.0000 C   0  0  0  0  0  0  0  0  0  0  0  0
    1.0760   -2.0465    0.0000 O   0  0  0  0  0  0  0  0  0  0  0  0
    0.0000   -1.2653    0.0000 C   0  0  0  0  0  0  0  0  0  0  0  0
    0.4110    0.0000    0.0000 C   0  0  0  0  0  0  0  0  0  0  0  0
  1  2  2  0  0  0  0
  1  5  1  0  0  0  0
  2  3  1  0  0  0  0
  3  4  1  0  0  0  0
  4  5  2  0  0  0  0
M  END
>  <DSSTox_RID>
20646

>  <DSSTox_CID>
646

>  <DSSTox_Generic_SID>
20646

>  <DSSTox_FileID>
675_CPDBAS_v5d

>  <STRUCTURE_Formula>
C4H4O

>  <STRUCTURE_MolecularWeight>
68.074

>  <STRUCTURE_ChemicalType>
defined organic

>  <STRUCTURE_TestedForm_DefinedOrganic>
parent

>  <STRUCTURE_Shown>
tested chemical

>  <TestSubstance_ChemicalName>
Furan

>  <TestSubstance_CASRN>
110-00-9

>  <TestSubstance_Description>
single chemical compound

>  <STRUCTURE_ChemicalName_IUPAC>
furan

>  <STRUCTURE_SMILES>
C1=COC=C1

>  <STRUCTURE_Parent_SMILES>
C1=COC=C1

>  <STRUCTURE_InChI>
InChI=1/C4H4O/c1-2-4-5-3-1/h1-4H

>  <STRUCTURE_InChIKey>
YLQBMQCUIZJEEH-UHFFFAOYAC

>  <StudyType>
Carcinogenicity

>  <Endpoint>
TD50; Tumor Target Sites

>  <Species>
rat; mouse

>  <ActivityOutcome_CPDBAS_Mutagenicity>
inactive

>  <TD50_Rat_mg>
0.396

>  <TD50_Rat_mmol>
0.00582

>  <ActivityScore_CPDBAS_Rat>
49

>  <TD50_Rat_Note>
TD50 is harmonic mean of more than one positive test

>  <TargetSites_Rat_Male>
hematopoietic system; liver

>  <TargetSites_Rat_Female>
hematopoietic system; liver

>  <ActivityOutcome_CPDBAS_Rat>
active

>  <TD50_Mouse_mg>
2.72

>  <TD50_Mouse_mmol>
0.04

>  <ActivityScore_CPDBAS_Mouse>
44

>  <TD50_Mouse_Note>
TD50 is harmonic mean of more than one positive test

>  <TargetSites_Mouse_Male>
adrenal gland; liver

>  <TargetSites_Mouse_Female>
adrenal gland; liver

>  <ActivityOutcome_CPDBAS_Mouse>
active

>  <ActivityOutcome_CPDBAS_SingleCellCall>
active

>  <ActivityOutcome_CPDBAS_MultiCellCall>
active

>  <ActivityOutcome_CPDBAS_MultiCellCall_Details>
multisite active; multisex active; multispecies active

>  <NTP_TechnicalReport>
TR 402

>  <ChemicalPage_URL>
http://potency.berkeley.edu/chempages/FURAN.html

$$$$



  7  7  0  0  0  0  0  0  0  0999 V2000
    0.0000   -1.5998    0.0000 O   0  0  0  0  0  0  0  0  0  0  0  0
    1.1503   -2.2653    0.0000 C   0  0  0  0  0  0  0  0  0  0  0  0
    2.3050   -1.5998    0.0000 C   0  0  0  0  0  0  0  0  0  0  0  0
    2.4416   -0.2777    0.0000 C   0  0  0  0  0  0  0  0  0  0  0  0
    3.7417    0.0000    0.0000 C   0  0  0  0  0  0  0  0  0  0  0  0
    4.4072   -1.1547    0.0000 C   0  0  0  0  0  0  0  0  0  0  0  0
    3.5169   -2.1419    0.0000 O   0  0  0  0  0  0  0  0  0  0  0  0
  1  2  2  0  0  0  0
  2  3  1  0  0  0  0
  3  4  2  0  0  0  0
  3  7  1  0  0  0  0
  4  5  1  0  0  0  0
  5  6  2  0  0  0  0
  6  7  1  0  0  0  0
M  END
>  <DSSTox_RID>
20647

>  <DSSTox_CID>
647

>  <DSSTox_Generic_SID>
20647

>  <DSSTox_FileID>
676_CPDBAS_v5d

>  <STRUCTURE_Formula>
C5H4O2

>  <STRUCTURE_MolecularWeight>
96.0841

>  <STRUCTURE_ChemicalType>
defined organic

>  <STRUCTURE_TestedForm_DefinedOrganic>
parent

>  <STRUCTURE_Shown>
tested chemical

>  <TestSubstance_ChemicalName>
Furfural

>  <TestSubstance_CASRN>
98-01-1

>  <TestSubstance_Description>
single chemical compound

>  <STRUCTURE_ChemicalName_IUPAC>
2-furaldehyde

>  <STRUCTURE_SMILES>
O=CC1=CC=CO1

>  <STRUCTURE_Parent_SMILES>
O=CC1=CC=CO1

>  <STRUCTURE_InChI>
InChI=1/C5H4O2/c6-4-5-2-1-3-7-5/h1-4H

>  <STRUCTURE_InChIKey>
HYBBIBNJHNGZAN-UHFFFAOYAD

>  <StudyType>
Carcinogenicity

>  <Endpoint>
TD50; Tumor Target Sites

>  <Species>
rat; mouse; hamster

>  <ActivityOutcome_CPDBAS_Mutagenicity>
active

>  <TD50_Rat_mg>
683

>  <TD50_Rat_mmol>
7.11

>  <ActivityScore_CPDBAS_Rat>
17

>  <TargetSites_Rat_Male>
liver

>  <TargetSites_Rat_Female>
no positive results

>  <ActivityOutcome_CPDBAS_Rat>
active

>  <TD50_Mouse_mg>
197

>  <TD50_Mouse_mmol>
2.05

>  <ActivityScore_CPDBAS_Mouse>
25

>  <TD50_Mouse_Note>
TD50 is harmonic mean of more than one positive test

>  <TargetSites_Mouse_Male>
liver

>  <TargetSites_Mouse_Female>
liver

>  <ActivityOutcome_CPDBAS_Mouse>
active

>  <ActivityScore_CPDBAS_Hamster>
0

>  <TD50_Hamster_Note>
no positive results

>  <TargetSites_Hamster_Male>
no positive results

>  <TargetSites_Hamster_Female>
no positive results

>  <ActivityOutcome_CPDBAS_Hamster>
inactive

>  <ActivityOutcome_CPDBAS_SingleCellCall>
active

>  <ActivityOutcome_CPDBAS_MultiCellCall>
active

>  <ActivityOutcome_CPDBAS_MultiCellCall_Details>
multisex active; multispecies active

>  <NTP_TechnicalReport>
TR 382

>  <ChemicalPage_URL>
http://potency.berkeley.edu/chempages/FURFURAL.html

$$$$



  7  7  0  0  0  0  0  0  0  0999 V2000
    3.5169   -2.1419    0.0000 C   0  0  0  0  0  0  0  0  0  0  0  0
    2.3050   -1.5998    0.0000 C   0  0  0  0  0  0  0  0  0  0  0  0
    1.1503   -2.2653    0.0000 C   0  0  0  0  0  0  0  0  0  0  0  0
    0.0000   -1.5998    0.0000 O   0  0  0  0  0  0  0  0  0  0  0  0
    2.4416   -0.2777    0.0000 O   0  0  0  0  0  0  0  0  0  0  0  0
    3.7417    0.0000    0.0000 C   0  0  0  0  0  0  0  0  0  0  0  0
    4.4072   -1.1547    0.0000 C   0  0  0  0  0  0  0  0  0  0  0  0
  1  2  2  0  0  0  0
  1  7  1  0  0  0  0
  2  3  1  0  0  0  0
  2  5  1  0  0  0  0
  3  4  1  0  0  0  0
  5  6  1  0  0  0  0
  6  7  2  0  0  0  0
M  END
>  <DSSTox_RID>
40796

>  <DSSTox_CID>
5347

>  <DSSTox_Generic_SID>
25347

>  <DSSTox_FileID>
677_CPDBAS_v5d

>  <STRUCTURE_Formula>
C5H6O2

>  <STRUCTURE_MolecularWeight>
98.0999

>  <STRUCTURE_ChemicalType>
defined organic

>  <STRUCTURE_TestedForm_DefinedOrganic>
parent

>  <STRUCTURE_Shown>
tested chemical

>  <TestSubstance_ChemicalName>
Furfuryl alcohol

>  <TestSubstance_CASRN>
98-00-0

>  <TestSubstance_Description>
single chemical compound

>  <STRUCTURE_ChemicalName_IUPAC>
2-furylmethanol

>  <STRUCTURE_SMILES>
C1=C(CO)OC=C1

>  <STRUCTURE_Parent_SMILES>
C1=C(CO)OC=C1

>  <STRUCTURE_InChI>
InChI=1/C5H6O2/c6-4-5-2-1-3-7-5/h1-3,6H,4H2

>  <STRUCTURE_InChIKey>
XPFVYQJUAUNWIW-UHFFFAOYAV

>  <StudyType>
Carcinogenicity

>  <Endpoint>
TD50; Tumor Target Sites

>  <Species>
rat; mouse

>  <ActivityOutcome_CPDBAS_Mutagenicity>
inactive

>  <TD50_Rat_mg>
9.6

>  <TD50_Rat_mmol>
0.0979

>  <ActivityScore_CPDBAS_Rat>
36

>  <TargetSites_Rat_Male>
nasal cavity

>  <TargetSites_Rat_Female>
no positive results

>  <ActivityOutcome_CPDBAS_Rat>
active

>  <TD50_Mouse_mg>
263

>  <TD50_Mouse_mmol>
2.68

>  <ActivityScore_CPDBAS_Mouse>
23

>  <TargetSites_Mouse_Male>
kidney

>  <TargetSites_Mouse_Female>
no positive results

>  <ActivityOutcome_CPDBAS_Mouse>
active

>  <ActivityOutcome_CPDBAS_SingleCellCall>
active

>  <ActivityOutcome_CPDBAS_MultiCellCall>
active

>  <ActivityOutcome_CPDBAS_MultiCellCall_Details>
multisite active; multispecies active

>  <Note_CPDBAS>
Rat added v5a; Mouse added v5a; Mutagenicity_SAL_CPDB added v5a; chemical added v5a

>  <ChemicalPage_URL>
http://potency.berkeley.edu/chempages/FURFURYL%20ALCOHOL.html

$$$$



 21 22  0  0  0  0  0  0  0  0999 V2000
    3.4551   -6.0438    0.0000 C   0  0  0  0  0  0  0  0  0  0  0  0
    2.2999   -5.3699    0.0000 C   0  0  0  0  0  0  0  0  0  0  0  0
    1.1553   -6.0438    0.0000 C   0  0  0  0  0  0  0  0  0  0  0  0
    1.1553   -7.3703    0.0000 C   0  0  0  0  0  0  0  0  0  0  0  0
    2.2999   -8.0335    0.0000 C   0  0  0  0  0  0  0  0  0  0  0  0
    3.4551   -7.3703    0.0000 C   0  0  0  0  0  0  0  0  0  0  0  0
    2.2999   -9.3706    0.0000 S   0  0  0  0  0  0  0  0  0  0  0  0
    2.2999  -10.6971    0.0000 N   0  0  0  0  0  0  0  0  0  0  0  0
    0.9734   -9.3706    0.0000 O   0  0  0  0  0  0  0  0  0  0  0  0
    3.6370   -9.3706    0.0000 O   0  0  0  0  0  0  0  0  0  0  0  0
    0.0000   -8.0335    0.0000 Cl  0  0  0  0  0  0  0  0  0  0  0  0
    2.2999   -4.0435    0.0000 N   0  0  0  0  0  0  0  0  0  0  0  0
    1.1553   -3.3803    0.0000 C   0  0  0  0  0  0  0  0  0  0  0  0
    1.1553   -2.0431    0.0000 C   0  0  0  0  0  0  0  0  0  0  0  0
    2.2250   -1.2623    0.0000 C   0  0  0  0  0  0  0  0  0  0  0  0
    1.8185    0.0000    0.0000 C   0  0  0  0  0  0  0  0  0  0  0  0
    0.4921    0.0000    0.0000 C   0  0  0  0  0  0  0  0  0  0  0  0
    0.0749   -1.2623    0.0000 O   0  0  0  0  0  0  0  0  0  0  0  0
    4.6104   -5.3699    0.0000 C   0  0  0  0  0  0  0  0  0  0  0  0
    5.7657   -6.0438    0.0000 O   0  0  0  0  0  0  0  0  0  0  0  0
    4.6104   -4.0435    0.0000 O   0  0  0  0  0  0  0  0  0  0  0  0
  1  2  1  0  0  0  0
  1  6  2  0  0  0  0
  1 19  1  0  0  0  0
  2  3  2  0  0  0  0
  2 12  1  0  0  0  0
  3  4  1  0  0  0  0
  4  5  2  0  0  0  0
  4 11  1  0  0  0  0
  5  6  1  0  0  0  0
  5  7  1  0  0  0  0
  7  8  1  0  0  0  0
  7  9  2  0  0  0  0
  7 10  2  0  0  0  0
 12 13  1  0  0  0  0
 13 14  1  0  0  0  0
 14 15  2  0  0  0  0
 14 18  1  0  0  0  0
 15 16  1  0  0  0  0
 16 17  2  0  0  0  0
 17 18  1  0  0  0  0
 19 20  1  0  0  0  0
 19 21  2  0  0  0  0
M  END
>  <DSSTox_RID>
20648

>  <DSSTox_CID>
648

>  <DSSTox_Generic_SID>
20648

>  <DSSTox_FileID>
678_CPDBAS_v5d

>  <STRUCTURE_Formula>
C12H11ClN2O5S

>  <STRUCTURE_MolecularWeight>
330.7441

>  <STRUCTURE_ChemicalType>
defined organic

>  <STRUCTURE_TestedForm_DefinedOrganic>
parent

>  <STRUCTURE_Shown>
tested chemical

>  <TestSubstance_ChemicalName>
Furosemide

>  <TestSubstance_CASRN>
54-31-9

>  <TestSubstance_Description>
single chemical compound

>  <STRUCTURE_ChemicalName_IUPAC>
5-(aminosulfonyl)-4-chloro-2-[(furan-2-ylmethyl)amino]benzoic acid

>  <STRUCTURE_SMILES>
NS(C1=C(Cl)C=C(NCC2=CC=CO2)C(C(O)=O)=C1)(=O)=O

>  <STRUCTURE_Parent_SMILES>
NS(C1=C(Cl)C=C(NCC2=CC=CO2)C(C(O)=O)=C1)(=O)=O

>  <STRUCTURE_InChI>
InChI=1/C12H11ClN2O5S/c13-9-5-10(15-6-7-2-1-3-20-7)8(12(16)17)4-11(9)21(14,18)19/h1-5,15H,6H2,(H,16,17)(H2,14,18,19)/f/h16H,14H2

>  <STRUCTURE_InChIKey>
ZZUFCTLCJUWOSV-CDZRGBSPCX

>  <StudyType>
Carcinogenicity

>  <Endpoint>
TD50; Tumor Target Sites

>  <Species>
rat; mouse

>  <ActivityOutcome_CPDBAS_Mutagenicity>
inactive

>  <ActivityScore_CPDBAS_Rat>
0

>  <TD50_Rat_Note>
no positive results

>  <TargetSites_Rat_Male>
no positive results

>  <TargetSites_Rat_Female>
no positive results

>  <ActivityOutcome_CPDBAS_Rat>
inactive

>  <TD50_Mouse_mg>
732

>  <TD50_Mouse_mmol>
2.21

>  <ActivityScore_CPDBAS_Mouse>
24

>  <TargetSites_Mouse_Male>
no positive results

>  <TargetSites_Mouse_Female>
mammary gland

>  <ActivityOutcome_CPDBAS_Mouse>
active

>  <ActivityOutcome_CPDBAS_SingleCellCall>
active

>  <NTP_TechnicalReport>
TR 356

>  <ChemicalPage_URL>
http://potency.berkeley.edu/chempages/FUROSEMIDE.html

$$$$



 25 28  0  0  1  0  0  0  0  0999 V2000
    5.7595   -3.7510    0.0000 C   0  0  0  0  0  0  0  0  0  0  0  0
    5.2770   -2.5204    0.0000 C   0  0  2  0  0  0  0  0  0  0  0  0
    5.9367   -1.3783    0.0000 C   0  0  1  0  0  0  0  0  0  0  0  0
    5.2770   -0.2363    0.0000 C   0  0  3  0  0  0  0  0  0  0  0  0
    3.9578   -0.2363    0.0000 O   0  0  0  0  0  0  0  0  0  0  0  0
    3.2982   -1.3783    0.0000 C   0  0  3  0  0  0  0  0  0  0  0  0
    3.9578   -2.5204    0.0000 C   0  0  1  0  0  0  0  0  0  0  0  0
    3.2982   -3.6624    0.0000 C   0  0  3  0  0  0  0  0  0  0  0  0
    1.9789   -3.6624    0.0000 C   0  0  0  0  0  0  0  0  0  0  0  0
    1.3193   -4.8045    0.0000 O   0  0  0  0  0  0  0  0  0  0  0  0
    1.3193   -2.5204    0.0000 C   0  0  0  0  0  0  0  0  0  0  0  0
    1.9789   -1.3783    0.0000 C   0  0  0  0  0  0  0  0  0  0  0  0
    0.0000   -2.5204    0.0000 C   0  0  0  0  0  0  0  0  0  0  0  0
    3.9578   -4.8045    0.0000 O   0  0  0  0  0  0  0  0  0  0  0  0
    4.5485   -4.1350    0.0000 C   0  0  0  0  0  0  0  0  0  0  0  0
    5.7890   -4.5780    0.0000 O   0  0  0  0  0  0  0  0  0  0  0  0
    6.4683   -0.7285    0.0000 C   0  0  1  0  0  0  0  0  0  0  0  0
    6.4683   -2.0183    0.0000 C   0  0  1  0  0  0  0  0  0  0  0  0
    7.5611   -2.7468    0.0000 O   0  0  0  0  0  0  0  0  0  0  0  0
    8.7426   -2.1660    0.0000 C   0  0  0  0  0  0  0  0  0  0  0  0
    8.8312   -0.8467    0.0000 O   0  0  0  0  0  0  0  0  0  0  0  0
    9.8452   -2.8945    0.0000 C   0  0  0  0  0  0  0  0  0  0  0  0
    7.5611    0.0000    0.0000 O   0  0  0  0  0  0  0  0  0  0  0  0
    7.0787   -0.7187    0.0000 C   0  0  0  0  0  0  0  0  0  0  0  0
    7.0787   -2.0380    0.0000 O   0  0  0  0  0  0  0  0  0  0  0  0
  2  1  1  1  0  0  0
  2  3  1  0  0  0  0
  2  7  1  0  0  0  0
  2 18  1  0  0  0  0
  3  4  1  0  0  0  0
  3 24  1  0  0  0  0
  3 25  1  6  0  0  0
  4  5  1  0  0  0  0
  4 17  1  0  0  0  0
  5  6  1  0  0  0  0
  6  7  1  0  0  0  0
  6 12  1  0  0  0  0
  7  8  1  0  0  0  0
  7 15  1  1  0  0  0
  8  9  1  0  0  0  0
  8 14  1  0  0  0  0
  9 10  2  0  0  0  0
  9 11  1  0  0  0  0
 11 12  2  0  0  0  0
 11 13  1  0  0  0  0
 15 16  1  0  0  0  0
 17 18  1  0  0  0  0
 17 23  1  6  0  0  0
 18 19  1  1  0  0  0
 19 20  1  0  0  0  0
 20 21  2  0  0  0  0
 20 22  1  0  0  0  0
 24 25  1  0  0  0  0
M  END
>  <DSSTox_RID>
20649

>  <DSSTox_CID>
649

>  <DSSTox_Generic_SID>
20649

>  <DSSTox_FileID>
679_CPDBAS_v5d

>  <STRUCTURE_Formula>
C17H22O8

>  <STRUCTURE_MolecularWeight>
354.356

>  <STRUCTURE_ChemicalType>
defined organic

>  <STRUCTURE_TestedForm_DefinedOrganic>
parent

>  <STRUCTURE_Shown>
tested chemical

>  <TestSubstance_ChemicalName>
Fusarenon-X

>  <TestSubstance_CASRN>
23255-69-8

>  <TestSubstance_Description>
single chemical compound

>  <ChemicalNote>
stereochem

>  <STRUCTURE_ChemicalName_IUPAC>
(3alpha,4beta,6beta,11xi)-3,7,15-trihydroxy-8-oxo-12,13-epoxytrichothec-9-en-4-yl acetate

>  <STRUCTURE_SMILES>
C[C@]12[C@@]3(C(OC4[C@@]1(C(C(=O)C(=C4)C)O)CO)[C@@H]([C@@H]2OC(=O)C)O)CO3

>  <STRUCTURE_Parent_SMILES>
C[C@]12[C@@]3(C(OC4[C@]1(C(C(=O)C(=C4)C)O)CO)[C@@H]([C@H]2OC(=O)C)O)CO3

>  <STRUCTURE_InChI>
InChI=1/C17H22O8/c1-7-4-9-16(5-18,12(22)10(7)20)15(3)13(24-8(2)19)11(21)14(25-9)17(15)6-23-17/h4,9,11-14,18,21-22H,5-6H2,1-3H3/t9?,11-,12?,13-,14?,15-,16+,17+/m1/s1

>  <STRUCTURE_InChIKey>
XGCUCFKWVIWWNW-ASESAZNFBX

>  <StudyType>
Carcinogenicity

>  <Endpoint>
TD50; Tumor Target Sites

>  <Species>
rat

>  <ActivityOutcome_CPDBAS_Mutagenicity>
inactive

>  <ActivityScore_CPDBAS_Rat>
0

>  <TD50_Rat_Note>
no positive results

>  <TargetSites_Rat_Male>
no positive results

>  <ActivityOutcome_CPDBAS_Rat>
inactive

>  <ActivityOutcome_CPDBAS_SingleCellCall>
inactive

>  <ChemicalPage_URL>
http://potency.berkeley.edu/chempages/FUSARENON-X.html

$$$$



 12 12  0  0  0  0  0  0  0  0999 V2000
    5.9827   -3.4580    0.0000 O   0  0  0  0  0  0  0  0  0  0  0  0
    5.3186   -2.3033    0.0000 C   0  0  0  0  0  0  0  0  0  0  0  0
    5.9827   -1.1547    0.0000 O   0  0  0  0  0  0  0  0  0  0  0  0
    3.9905   -2.3033    0.0000 C   0  0  0  0  0  0  0  0  0  0  0  0
    3.3264   -3.4580    0.0000 C   0  0  0  0  0  0  0  0  0  0  0  0
    1.9922   -3.4580    0.0000 C   0  0  0  0  0  0  0  0  0  0  0  0
    1.3282   -2.3033    0.0000 C   0  0  0  0  0  0  0  0  0  0  0  0
    1.9922   -1.1547    0.0000 C   0  0  0  0  0  0  0  0  0  0  0  0
    3.3264   -1.1547    0.0000 C   0  0  0  0  0  0  0  0  0  0  0  0
    1.3282    0.0000    0.0000 O   0  0  0  0  0  0  0  0  0  0  0  0
    0.0000   -2.3033    0.0000 O   0  0  0  0  0  0  0  0  0  0  0  0
    1.3282   -4.6067    0.0000 O   0  0  0  0  0  0  0  0  0  0  0  0
  1  2  1  0  0  0  0
  2  3  2  0  0  0  0
  2  4  1  0  0  0  0
  4  5  2  0  0  0  0
  4  9  1  0  0  0  0
  5  6  1  0  0  0  0
  6  7  2  0  0  0  0
  6 12  1  0  0  0  0
  7  8  1  0  0  0  0
  7 11  1  0  0  0  0
  8  9  2  0  0  0  0
  8 10  1  0  0  0  0
M  END
>  <DSSTox_RID>
20650

>  <DSSTox_CID>
650

>  <DSSTox_Generic_SID>
20650

>  <DSSTox_FileID>
680_CPDBAS_v5d

>  <STRUCTURE_Formula>
C7H6O5

>  <STRUCTURE_MolecularWeight>
170.1195

>  <STRUCTURE_ChemicalType>
defined organic

>  <STRUCTURE_TestedForm_DefinedOrganic>
parent

>  <STRUCTURE_Shown>
tested chemical

>  <TestSubstance_ChemicalName>
Gallic acid

>  <TestSubstance_CASRN>
149-91-7

>  <TestSubstance_Description>
single chemical compound

>  <STRUCTURE_ChemicalName_IUPAC>
3,4,5-trihydroxybenzoic acid

>  <STRUCTURE_SMILES>
OC(=O)C1=CC(=C(C(=C1)O)O)O

>  <STRUCTURE_Parent_SMILES>
OC(=O)C1=CC(=C(C(=C1)O)O)O

>  <STRUCTURE_InChI>
InChI=1/C7H6O5/c8-4-1-3(7(11)12)2-5(9)6(4)10/h1-2,8-10H,(H,11,12)/f/h11H

>  <STRUCTURE_InChIKey>
LNTHITQWFMADLM-WXRBYKJCCN

>  <StudyType>
Carcinogenicity

>  <Endpoint>
TD50; Tumor Target Sites

>  <Species>
rat

>  <ActivityOutcome_CPDBAS_Mutagenicity>
inactive

>  <ActivityScore_CPDBAS_Rat>
0

>  <TD50_Rat_Note>
no positive results

>  <TargetSites_Rat_Male>
no positive results

>  <ActivityOutcome_CPDBAS_Rat>
inactive

>  <ActivityOutcome_CPDBAS_SingleCellCall>
inactive

>  <ChemicalPage_URL>
http://potency.berkeley.edu/chempages/GALLIC%20ACID.html

$$$$



 16 15  0  0  0  0  0  0  0  0999 V2000
    2.6646    0.0000    0.0000 C   0  0  0  0  0  0  0  0  0  0  0  0
    2.0015   -1.1454    0.0000 C   0  0  0  0  0  0  0  0  0  0  0  0
    0.8440   -0.4823    0.0000 C   0  0  0  0  0  0  0  0  0  0  0  0
    1.3263   -2.3029    0.0000 C   0  0  0  0  0  0  0  0  0  0  0  0
    0.0000   -2.3029    0.0000 O   0  0  0  0  0  0  0  0  0  0  0  0
    3.1469   -1.8086    0.0000 C   0  0  0  0  0  0  0  0  0  0  0  0
    4.3044   -1.1454    0.0000 C   0  0  0  0  0  0  0  0  0  0  0  0
    5.4499   -1.8086    0.0000 C   0  0  0  0  0  0  0  0  0  0  0  0
    6.6073   -1.1454    0.0000 C   0  0  0  0  0  0  0  0  0  0  0  0
    7.7528   -1.8086    0.0000 C   0  0  0  0  0  0  0  0  0  0  0  0
    8.9103   -1.1454    0.0000 C   0  0  0  0  0  0  0  0  0  0  0  0
   10.0557   -1.8086    0.0000 C   0  0  0  0  0  0  0  0  0  0  0  0
   11.2132   -2.4838    0.0000 C   0  0  0  0  0  0  0  0  0  0  0  0
    9.3926   -2.9661    0.0000 C   0  0  0  0  0  0  0  0  0  0  0  0
   10.7309   -0.6631    0.0000 C   0  0  0  0  0  0  0  0  0  0  0  0
   12.0572   -0.6631    0.0000 O   0  0  0  0  0  0  0  0  0  0  0  0
  1  2  1  0  0  0  0
  2  3  1  0  0  0  0
  2  4  1  0  0  0  0
  2  6  1  0  0  0  0
  4  5  1  0  0  0  0
  6  7  1  0  0  0  0
  7  8  1  0  0  0  0
  8  9  1  0  0  0  0
  9 10  1  0  0  0  0
 10 11  1  0  0  0  0
 11 12  1  0  0  0  0
 12 13  1  0  0  0  0
 12 14  1  0  0  0  0
 12 15  1  0  0  0  0
 15 16  1  0  0  0  0
M  END
>  <DSSTox_RID>
20651

>  <DSSTox_CID>
651

>  <DSSTox_Generic_SID>
20651

>  <DSSTox_FileID>
681_CPDBAS_v5d

>  <STRUCTURE_Formula>
C14H30O2

>  <STRUCTURE_MolecularWeight>
230.3898

>  <STRUCTURE_ChemicalType>
defined organic

>  <STRUCTURE_TestedForm_DefinedOrganic>
parent

>  <STRUCTURE_Shown>
tested chemical

>  <TestSubstance_ChemicalName>
Gemcadiol

>  <TestSubstance_CASRN>
35449-36-6

>  <TestSubstance_Description>
single chemical compound

>  <STRUCTURE_ChemicalName_IUPAC>
2,2,9,9-tetramethyldecane-1,10-diol

>  <STRUCTURE_SMILES>
CC(C)(CO)CCCCCCC(C)(C)CO

>  <STRUCTURE_Parent_SMILES>
CC(C)(CO)CCCCCCC(C)(C)CO

>  <STRUCTURE_InChI>
InChI=1/C14H30O2/c1-13(2,11-15)9-7-5-6-8-10-14(3,4)12-16/h15-16H,5-12H2,1-4H3

>  <STRUCTURE_InChIKey>
DJKWDKJYFYUEBQ-UHFFFAOYAF

>  <StudyType>
Carcinogenicity

>  <Endpoint>
TD50; Tumor Target Sites

>  <Species>
rat

>  <ActivityScore_CPDBAS_Rat>
0

>  <TD50_Rat_Note>
no positive results

>  <TargetSites_Rat_Male>
no positive results

>  <TargetSites_Rat_Female>
no positive results

>  <ActivityOutcome_CPDBAS_Rat>
inactive

>  <ActivityOutcome_CPDBAS_SingleCellCall>
inactive

>  <ActivityOutcome_CPDBAS_MultiCellCall>
inactive

>  <ActivityOutcome_CPDBAS_MultiCellCall_Details>
multisex inactive

>  <ChemicalPage_URL>
http://potency.berkeley.edu/chempages/GEMCADIOL.html

$$$$



 18 18  0  0  0  0  0  0  0  0999 V2000
    4.6120   -1.6414    0.0000 C   0  0  0  0  0  0  0  0  0  0  0  0
    3.4641   -2.3060    0.0000 C   0  0  0  0  0  0  0  0  0  0  0  0
    3.4641   -3.6352    0.0000 C   0  0  0  0  0  0  0  0  0  0  0  0
    2.3060   -4.2999    0.0000 C   0  0  0  0  0  0  0  0  0  0  0  0
    1.1580   -3.6352    0.0000 C   0  0  0  0  0  0  0  0  0  0  0  0
    1.1580   -2.3060    0.0000 C   0  0  0  0  0  0  0  0  0  0  0  0
    2.3060   -1.6414    0.0000 C   0  0  0  0  0  0  0  0  0  0  0  0
    0.0000   -4.2999    0.0000 C   0  0  0  0  0  0  0  0  0  0  0  0
    4.6120   -4.2999    0.0000 O   0  0  0  0  0  0  0  0  0  0  0  0
    5.7701   -3.6352    0.0000 C   0  0  0  0  0  0  0  0  0  0  0  0
    5.7701   -2.3060    0.0000 C   0  0  0  0  0  0  0  0  0  0  0  0
    6.9180   -1.6414    0.0000 C   0  0  0  0  0  0  0  0  0  0  0  0
    8.0761   -2.3060    0.0000 C   0  0  0  0  0  0  0  0  0  0  0  0
    8.7407   -1.1480    0.0000 C   0  0  0  0  0  0  0  0  0  0  0  0
    8.0761    0.0000    0.0000 O   0  0  0  0  0  0  0  0  0  0  0  0
   10.0699   -1.1480    0.0000 O   0  0  0  0  0  0  0  0  0  0  0  0
    9.2240   -2.9706    0.0000 C   0  0  0  0  0  0  0  0  0  0  0  0
    7.4115   -3.4540    0.0000 C   0  0  0  0  0  0  0  0  0  0  0  0
  1  2  1  0  0  0  0
  2  3  2  0  0  0  0
  2  7  1  0  0  0  0
  3  4  1  0  0  0  0
  3  9  1  0  0  0  0
  4  5  2  0  0  0  0
  5  6  1  0  0  0  0
  5  8  1  0  0  0  0
  6  7  2  0  0  0  0
  9 10  1  0  0  0  0
 10 11  1  0  0  0  0
 11 12  1  0  0  0  0
 12 13  1  0  0  0  0
 13 14  1  0  0  0  0
 13 17  1  0  0  0  0
 13 18  1  0  0  0  0
 14 15  2  0  0  0  0
 14 16  1  0  0  0  0
M  END
>  <DSSTox_RID>
20652

>  <DSSTox_CID>
652

>  <DSSTox_Generic_SID>
20652

>  <DSSTox_FileID>
682_CPDBAS_v5d

>  <STRUCTURE_Formula>
C15H22O3

>  <STRUCTURE_MolecularWeight>
250.3334

>  <STRUCTURE_ChemicalType>
defined organic

>  <STRUCTURE_TestedForm_DefinedOrganic>
parent

>  <STRUCTURE_Shown>
tested chemical

>  <TestSubstance_ChemicalName>
Gemfibrozil

>  <TestSubstance_CASRN>
25812-30-0

>  <TestSubstance_Description>
single chemical compound

>  <STRUCTURE_ChemicalName_IUPAC>
5-[(2,5-dimethylphenyl)oxy]-2,2-dimethylpentanoic acid

>  <STRUCTURE_SMILES>
CC1=C(C=C(C=C1)C)OCCCC(C(=O)O)(C)C

>  <STRUCTURE_Parent_SMILES>
CC1=C(C=C(C=C1)C)OCCCC(C(=O)O)(C)C

>  <STRUCTURE_InChI>
InChI=1/C15H22O3/c1-11-6-7-12(2)13(10-11)18-9-5-8-15(3,4)14(16)17/h6-7,10H,5,8-9H2,1-4H3,(H,16,17)/f/h16H

>  <STRUCTURE_InChIKey>
HEMJJKBWTPKOJG-WYUMXYHSCS

>  <StudyType>
Carcinogenicity

>  <Endpoint>
TD50; Tumor Target Sites

>  <Species>
rat; mouse

>  <TD50_Rat_mg>
247

>  <TD50_Rat_mmol>
0.987

>  <ActivityScore_CPDBAS_Rat>
26

>  <TD50_Rat_Note>
no positive results

>  <TargetSites_Rat_Male>
liver

>  <TargetSites_Rat_Female>
no positive results

>  <ActivityOutcome_CPDBAS_Rat>
active

>  <ActivityScore_CPDBAS_Mouse>
0

>  <TD50_Mouse_Note>
no positive results

>  <TargetSites_Mouse_Male>
no positive results

>  <TargetSites_Mouse_Female>
no positive results

>  <ActivityOutcome_CPDBAS_Mouse>
inactive

>  <ActivityOutcome_CPDBAS_SingleCellCall>
active

>  <Note_CPDBAS>
TD50_Rat modified v2a; TargetSites_Rat_Male modified v2a

>  <ChemicalPage_URL>
http://potency.berkeley.edu/chempages/GEMFIBROZIL.html

$$$$



 27 31  0  0  1  0  0  0  0  0999 V2000
    3.2540   -1.2343    0.0000 C   0  0  2  0  0  0  0  0  0  0  0  0
    5.3772   -2.4944    0.0000 C   0  0  2  0  0  0  0  0  0  0  0  0
    2.1751   -3.1159    0.0000 C   0  0  2  0  0  0  0  0  0  0  0  0
    3.2540   -2.4944    0.0000 C   0  0  1  0  0  0  0  0  0  0  0  0
    2.1751   -1.9248    0.0000 C   0  0  0  0  0  0  0  0  0  0  0  0
    3.2540    0.0000    0.0000 O   0  0  0  0  0  0  0  0  0  0  0  0
    4.3156   -3.1159    0.0000 C   0  0  2  0  0  0  0  0  0  0  0  0
    5.3772   -1.2343    0.0000 C   0  0  1  0  0  0  0  0  0  0  0  0
    7.5350   -2.4944    0.0000 C   0  0  2  0  0  0  0  0  0  0  0  0
    2.1751   -0.6042    0.0000 C   0  0  0  0  0  0  0  0  0  0  0  0
    6.4302   -3.1159    0.0000 C   0  0  0  0  0  0  0  0  0  0  0  0
    5.3772   -3.8581    0.0000 C   0  0  0  0  0  0  0  0  0  0  0  0
    7.5264   -3.8581    0.0000 C   0  0  0  0  0  0  0  0  0  0  0  0
    4.3156   -4.3501    0.0000 C   0  0  0  0  0  0  0  0  0  0  0  0
    1.0962   -1.2343    0.0000 C   0  0  0  0  0  0  0  0  0  0  0  0
    1.0962   -2.4944    0.0000 C   0  0  2  0  0  0  0  0  0  0  0  0
    6.4302   -0.6042    0.0000 C   0  0  0  0  0  0  0  0  0  0  0  0
    1.3119   -1.6745    0.0000 O   0  0  0  0  0  0  0  0  0  0  0  0
    7.5350   -1.2343    0.0000 C   0  0  0  0  0  0  0  0  0  0  0  0
    5.3686   -4.9975    0.0000 O   0  0  0  0  0  0  0  0  0  0  0  0
    8.5794   -4.4968    0.0000 C   0  0  0  0  0  0  0  0  0  0  0  0
    8.6312   -3.1331    0.0000 O   0  0  0  0  0  0  0  0  0  0  0  0
    2.1751   -4.3501    0.0000 C   0  0  0  0  0  0  0  0  0  0  0  0
    3.2540   -5.0147    0.0000 O   0  0  0  0  0  0  0  0  0  0  0  0
    0.0000   -3.1331    0.0000 O   0  0  0  0  0  0  0  0  0  0  0  0
    5.3772    0.0000    0.0000 H   0  0  0  0  0  0  0  0  0  0  0  0
    3.2540   -3.7546    0.0000 H   0  0  0  0  0  0  0  0  0  0  0  0
  1  4  1  0  0  0  0
  1  6  1  6  0  0  0
  1  8  1  0  0  0  0
  1 10  1  0  0  0  0
  2  8  1  0  0  0  0
  2 11  1  0  0  0  0
  2 12  1  1  0  0  0
  2  7  1  0  0  0  0
  3  4  1  0  0  0  0
  3 23  1  0  0  0  0
  3  5  1  6  0  0  0
  3 16  1  0  0  0  0
  4  7  1  0  0  0  0
  4 27  1  1  0  0  0
  5  6  1  0  0  0  0
  5 18  2  0  0  0  0
  7 14  1  1  0  0  0
  8 17  1  0  0  0  0
  8 26  1  1  0  0  0
  9 19  1  0  0  0  0
  9 22  1  6  0  0  0
  9 11  1  0  0  0  0
  9 13  1  1  0  0  0
 10 15  2  0  0  0  0
 12 13  1  0  0  0  0
 13 21  2  0  0  0  0
 14 20  2  0  0  0  0
 14 24  1  0  0  0  0
 15 16  1  0  0  0  0
 16 25  1  1  0  0  0
 17 19  1  0  0  0  0
M  END
>  <DSSTox_RID>
20656

>  <DSSTox_CID>
656

>  <DSSTox_Generic_SID>
20656

>  <DSSTox_FileID>
686_CPDBAS_v5d

>  <STRUCTURE_Formula>
C19H22O6

>  <STRUCTURE_MolecularWeight>
346.3744

>  <STRUCTURE_ChemicalType>
defined organic

>  <STRUCTURE_TestedForm_DefinedOrganic>
parent

>  <STRUCTURE_Shown>
tested chemical

>  <TestSubstance_ChemicalName>
Gibberellic acid

>  <TestSubstance_CASRN>
77-06-5

>  <TestSubstance_Description>
single chemical compound

>  <ChemicalNote>
stereochem

>  <STRUCTURE_ChemicalName_IUPAC>
(1S,2S,4aR,4bR,7S,9aS,10S,10aR)-2,7-dihydroxy-1-methyl-8-methylene-13-oxo-1,2,4b,5,6,7,8,9,10,10a-decahydro-4a,1-(epoxymethano)-7,9a-methanobenzo[a]azulene-10-carboxylic acid

>  <STRUCTURE_SMILES>
OC(=O)[C@@H]3[C@]51C[C@@](O)(CC[C@H]1[C@@]24\C=C/[C@H](O)[C@@](C)(C(=O)O2)[C@@H]34)C(=C)C5

>  <STRUCTURE_Parent_SMILES>
OC(=O)[C@@H]3[C@]51C[C@@](O)(CC[C@H]1[C@@]24\C=C/[C@H](O)[C@@](C)(C(=O)O2)[C@@H]34)C(=C)C5

>  <STRUCTURE_InChI>
InChI=1/C19H22O6/c1-9-7-17-8-18(9,24)5-3-10(17)19-6-4-11(20)16(2,15(23)25-19)13(19)12(17)14(21)22/h4,6,10-13,20,24H,1,3,5,7-8H2,2H3,(H,21,22)/t10-,11+,12-,13-,16-,17+,18+,19-/m1/s1/f/h21H

>  <STRUCTURE_InChIKey>
IXORZMNAPKEEDV-UTKWDUDXDX

>  <StudyType>
Carcinogenicity

>  <Endpoint>
TD50; Tumor Target Sites

>  <Species>
mouse

>  <ActivityOutcome_CPDBAS_Mutagenicity>
inactive

>  <ActivityScore_CPDBAS_Mouse>
0

>  <TD50_Mouse_Note>
no positive results

>  <TargetSites_Mouse_Male>
no positive results

>  <TargetSites_Mouse_Female>
no positive results

>  <ActivityOutcome_CPDBAS_Mouse>
inactive

>  <ActivityOutcome_CPDBAS_SingleCellCall>
inactive

>  <ActivityOutcome_CPDBAS_MultiCellCall>
inactive

>  <ActivityOutcome_CPDBAS_MultiCellCall_Details>
multisex inactive

>  <ChemicalPage_URL>
http://potency.berkeley.edu/chempages/GIBBERELLIC%20ACID.html

$$$$



 15 17  0  0  0  0  0  0  0  0999 V2000
    4.7238   -0.2510    0.0000 N   0  0  0  0  0  0  0  0  0  0  0  0
    3.4535   -0.6618    0.0000 C   0  0  0  0  0  0  0  0  0  0  0  0
    3.4535   -1.9930    0.0000 C   0  0  0  0  0  0  0  0  0  0  0  0
    4.7238   -2.4037    0.0000 N   0  0  0  0  0  0  0  0  0  0  0  0
    5.4997   -1.3312    0.0000 C   0  0  0  0  0  0  0  0  0  0  0  0
    6.8232   -1.4681    0.0000 C   0  0  0  0  0  0  0  0  0  0  0  0
    7.3633   -2.6852    0.0000 C   0  0  0  0  0  0  0  0  0  0  0  0
    6.5874   -3.7577    0.0000 C   0  0  0  0  0  0  0  0  0  0  0  0
    5.2639   -3.6208    0.0000 C   0  0  0  0  0  0  0  0  0  0  0  0
    7.6067   -0.3879    0.0000 C   0  0  0  0  0  0  0  0  0  0  0  0
    2.3048   -2.6547    0.0000 N   0  0  0  0  0  0  0  0  0  0  0  0
    1.1486   -1.9930    0.0000 C   0  0  0  0  0  0  0  0  0  0  0  0
    1.1486   -0.6618    0.0000 C   0  0  0  0  0  0  0  0  0  0  0  0
    2.3048    0.0000    0.0000 C   0  0  0  0  0  0  0  0  0  0  0  0
    0.0000   -2.6547    0.0000 N   0  0  0  0  0  0  0  0  0  0  0  0
  1  2  1  0  0  0  0
  1  5  2  0  0  0  0
  2  3  2  0  0  0  0
  2 14  1  0  0  0  0
  3  4  1  0  0  0  0
  3 11  1  0  0  0  0
  4  5  1  0  0  0  0
  4  9  1  0  0  0  0
  5  6  1  0  0  0  0
  6  7  2  0  0  0  0
  6 10  1  0  0  0  0
  7  8  1  0  0  0  0
  8  9  2  0  0  0  0
 11 12  2  0  0  0  0
 12 13  1  0  0  0  0
 12 15  1  0  0  0  0
 13 14  2  0  0  0  0
M  END
>  <DSSTox_RID>
20657

>  <DSSTox_CID>
657

>  <DSSTox_Generic_SID>
20657

>  <DSSTox_FileID>
687_CPDBAS_v5d

>  <STRUCTURE_Formula>
C11H10N4

>  <STRUCTURE_MolecularWeight>
198.2268

>  <STRUCTURE_ChemicalType>
defined organic

>  <STRUCTURE_TestedForm_DefinedOrganic>
parent

>  <STRUCTURE_Shown>
tested chemical

>  <TestSubstance_ChemicalName>
Glu-P-1

>  <TestSubstance_CASRN>
67730-11-4

>  <TestSubstance_Description>
single chemical compound

>  <STRUCTURE_ChemicalName_IUPAC>
6-methylimidazo[1,2-a:5,4-b']dipyridin-2-amine

>  <STRUCTURE_SMILES>
N1C2=C(N3C=1/C(=C\C=C/3)C)N=C(C=C2)N

>  <STRUCTURE_Parent_SMILES>
N1C2=C(N3C=1/C(=C\C=C/3)C)N=C(C=C2)N

>  <STRUCTURE_InChI>
InChI=1/C11H10N4/c1-7-3-2-6-15-10(7)13-8-4-5-9(12)14-11(8)15/h2-6H,1H3,(H2,12,14)/f/h12H2

>  <STRUCTURE_InChIKey>
AYLURHVFAYRSHT-GAJRPKRDCM

>  <StudyType>
Carcinogenicity

>  <Endpoint>
TD50; Tumor Target Sites

>  <Species>
rat; mouse

>  <ActivityOutcome_CPDBAS_Mutagenicity>
active

>  <TD50_Rat_mg>
4.69

>  <TD50_Rat_mmol>
0.0237

>  <ActivityScore_CPDBAS_Rat>
43

>  <TD50_Rat_Note>
TD50 is harmonic mean of more than one positive test

>  <TargetSites_Rat_Male>
ear Zymbals gland; large intestine; liver; small intestine

>  <TargetSites_Rat_Female>
clitoral gland; ear Zymbals gland; large intestine; liver; nervous system; small intestine

>  <ActivityOutcome_CPDBAS_Rat>
active

>  <TD50_Mouse_mg>
5.4

>  <TD50_Mouse_mmol>
0.0272

>  <ActivityScore_CPDBAS_Mouse>
46

>  <TD50_Mouse_Note>
TD50 is harmonic mean of more than one positive test

>  <TargetSites_Mouse_Male>
liver; vascular system

>  <TargetSites_Mouse_Female>
liver; vascular system

>  <ActivityOutcome_CPDBAS_Mouse>
active

>  <ActivityOutcome_CPDBAS_SingleCellCall>
active

>  <ActivityOutcome_CPDBAS_MultiCellCall>
active

>  <ActivityOutcome_CPDBAS_MultiCellCall_Details>
multisite active; multisex active; multispecies active

>  <ChemicalPage_URL>
http://potency.berkeley.edu/chempages/Glu-P-1.html

$$$$



 14 16  0  0  0  0  0  0  0  0999 V2000
    2.6438   -2.4008    0.0000 N   0  0  0  0  0  0  0  0  0  0  0  0
    3.9104   -1.9884    0.0000 C   0  0  0  0  0  0  0  0  0  0  0  0
    3.9104   -0.6628    0.0000 C   0  0  0  0  0  0  0  0  0  0  0  0
    5.0593    0.0000    0.0000 C   0  0  0  0  0  0  0  0  0  0  0  0
    6.2154   -0.6628    0.0000 C   0  0  0  0  0  0  0  0  0  0  0  0
    6.2154   -1.9884    0.0000 C   0  0  0  0  0  0  0  0  0  0  0  0
    5.0593   -2.6585    0.0000 N   0  0  0  0  0  0  0  0  0  0  0  0
    7.3643   -2.6585    0.0000 N   0  0  0  0  0  0  0  0  0  0  0  0
    2.6438   -0.2504    0.0000 N   0  0  0  0  0  0  0  0  0  0  0  0
    1.8632   -1.3256    0.0000 C   0  0  0  0  0  0  0  0  0  0  0  0
    0.5376   -1.4655    0.0000 C   0  0  0  0  0  0  0  0  0  0  0  0
    0.0000   -2.6806    0.0000 C   0  0  0  0  0  0  0  0  0  0  0  0
    0.7806   -3.7558    0.0000 C   0  0  0  0  0  0  0  0  0  0  0  0
    2.1062   -3.6159    0.0000 C   0  0  0  0  0  0  0  0  0  0  0  0
  1  2  1  0  0  0  0
  1 10  1  0  0  0  0
  1 14  1  0  0  0  0
  2  3  2  0  0  0  0
  2  7  1  0  0  0  0
  3  4  1  0  0  0  0
  3  9  1  0  0  0  0
  4  5  2  0  0  0  0
  5  6  1  0  0  0  0
  6  7  2  0  0  0  0
  6  8  1  0  0  0  0
  9 10  2  0  0  0  0
 10 11  1  0  0  0  0
 11 12  2  0  0  0  0
 12 13  1  0  0  0  0
 13 14  2  0  0  0  0
M  END
>  <DSSTox_RID>
20658

>  <DSSTox_CID>
658

>  <DSSTox_Generic_SID>
20658

>  <DSSTox_FileID>
688_CPDBAS_v5d

>  <STRUCTURE_Formula>
C10H8N4

>  <STRUCTURE_MolecularWeight>
184.2

>  <STRUCTURE_ChemicalType>
defined organic

>  <STRUCTURE_TestedForm_DefinedOrganic>
parent

>  <STRUCTURE_Shown>
tested chemical

>  <TestSubstance_ChemicalName>
Glu-P-2

>  <TestSubstance_CASRN>
67730-10-3

>  <TestSubstance_Description>
single chemical compound

>  <STRUCTURE_ChemicalName_IUPAC>
imidazo[1,2-a:5,4-b']dipyridin-2-amine

>  <STRUCTURE_SMILES>
N12C3=C(C=CC(=N3)N)N=C1C=CC=C2

>  <STRUCTURE_Parent_SMILES>
N12C3=C(C=CC(=N3)N)N=C1C=CC=C2

>  <STRUCTURE_InChI>
InChI=1/C10H8N4/c11-8-5-4-7-10(13-8)14-6-2-1-3-9(14)12-7/h1-6H,(H2,11,13)/f/h11H2

>  <STRUCTURE_InChIKey>
BUXVIXBGMQXWGT-QMLCPYSLCR

>  <StudyType>
Carcinogenicity

>  <Endpoint>
TD50; Tumor Target Sites

>  <Species>
rat; mouse

>  <ActivityOutcome_CPDBAS_Mutagenicity>
active

>  <TD50_Rat_mg>
42.3

>  <TD50_Rat_mmol>
0.23

>  <ActivityScore_CPDBAS_Rat>
32

>  <TD50_Rat_Note>
TD50 is harmonic mean of more than one positive test

>  <TargetSites_Rat_Male>
ear Zymbals gland; large intestine; liver; nervous system; small intestine

>  <TargetSites_Rat_Female>
clitoral gland; ear Zymbals gland; large intestine; liver; small intestine

>  <ActivityOutcome_CPDBAS_Rat>
active

>  <TD50_Mouse_mg>
16

>  <TD50_Mouse_mmol>
0.0869

>  <ActivityScore_CPDBAS_Mouse>
40

>  <TD50_Mouse_Note>
TD50 is harmonic mean of more than one positive test

>  <TargetSites_Mouse_Male>
liver; vascular system

>  <TargetSites_Mouse_Female>
liver; vascular system

>  <ActivityOutcome_CPDBAS_Mouse>
active

>  <ActivityOutcome_CPDBAS_SingleCellCall>
active

>  <ActivityOutcome_CPDBAS_MultiCellCall>
active

>  <ActivityOutcome_CPDBAS_MultiCellCall_Details>
multisite active; multisex active; multispecies active

>  <ChemicalPage_URL>
http://potency.berkeley.edu/chempages/Glu-P-2.html

$$$$



 10  9  0  0  1  0  0  0  0  0999 V2000
    5.7807   -1.3276    0.0000 C   0  0  0  0  0  0  0  0  0  0  0  0
    1.1340   -1.3415    0.0000 C   0  0  0  0  0  0  0  0  0  0  0  0
    5.7807    0.0000    0.0000 O   0  0  0  0  0  0  0  0  0  0  0  0
    4.5914   -1.9983    0.0000 C   0  0  2  0  0  0  0  0  0  0  0  0
    0.0000   -1.9983    0.0000 O   0  0  0  0  0  0  0  0  0  0  0  0
    3.4574   -1.3276    0.0000 C   0  0  0  0  0  0  0  0  0  0  0  0
    2.3026   -1.9983    0.0000 C   0  0  0  0  0  0  0  0  0  0  0  0
    1.1548   -0.0138    0.0000 O   0  0  0  0  0  0  0  0  0  0  0  0
    6.9147   -1.9983    0.0000 O   0  0  0  0  0  0  0  0  0  0  0  0
    4.5914   -3.3260    0.0000 N   0  0  0  0  0  0  0  0  0  0  0  0
  1  3  2  0  0  0  0
  1  4  1  0  0  0  0
  1  9  1  0  0  0  0
  2  7  1  0  0  0  0
  2  5  2  0  0  0  0
  2  8  1  0  0  0  0
  4  6  1  0  0  0  0
  4 10  1  1  0  0  0
  6  7  1  0  0  0  0
M  END
>  <DSSTox_RID>
20659

>  <DSSTox_CID>
659

>  <DSSTox_Generic_SID>
20659

>  <DSSTox_FileID>
689_CPDBAS_v5d

>  <STRUCTURE_Formula>
C5H9NO4

>  <STRUCTURE_MolecularWeight>
147.1293

>  <STRUCTURE_ChemicalType>
defined organic

>  <STRUCTURE_TestedForm_DefinedOrganic>
parent

>  <STRUCTURE_Shown>
tested chemical

>  <TestSubstance_ChemicalName>
l-Glutamic acid

>  <TestSubstance_CASRN>
56-86-0

>  <TestSubstance_Description>
single chemical compound

>  <ChemicalNote>
stereochem

>  <STRUCTURE_ChemicalName_IUPAC>
L-glutamic acid

>  <STRUCTURE_SMILES>
O=C(O)CC[C@H](N)C(O)=O

>  <STRUCTURE_Parent_SMILES>
O=C(O)CC[C@H](N)C(O)=O

>  <STRUCTURE_InChI>
InChI=1/C5H9NO4/c6-3(5(9)10)1-2-4(7)8/h3H,1-2,6H2,(H,7,8)(H,9,10)/t3-/m0/s1/f/h7,9H

>  <STRUCTURE_InChIKey>
WHUUTDBJXJRKMK-IQTGVIGADK

>  <StudyType>
Carcinogenicity

>  <Endpoint>
TD50; Tumor Target Sites

>  <Species>
mouse

>  <ActivityOutcome_CPDBAS_Mutagenicity>
inactive

>  <ActivityScore_CPDBAS_Mouse>
0

>  <TD50_Mouse_Note>
no positive results

>  <TargetSites_Mouse_Male>
no positive results

>  <ActivityOutcome_CPDBAS_Mouse>
inactive

>  <ActivityOutcome_CPDBAS_SingleCellCall>
inactive

>  <ChemicalPage_URL>
http://potency.berkeley.edu/chempages/L-GLUTAMIC%20ACID.html

$$$$



 20 20  0  0  1  0  0  0  0  0999 V2000
    5.7653   -3.9914    0.0000 N   0  0  0  0  0  0  0  0  0  0  0  0
    6.9057   -3.3325    0.0000 N   0  0  0  0  0  0  0  0  0  0  0  0
    8.0588   -3.9914    0.0000 C   0  0  0  0  0  0  0  0  0  0  0  0
    9.2119   -3.3325    0.0000 C   0  0  0  0  0  0  0  0  0  0  0  0
   10.3649   -3.9914    0.0000 C   0  0  0  0  0  0  0  0  0  0  0  0
   11.5180   -3.3325    0.0000 C   0  0  2  0  0  0  0  0  0  0  0  0
   12.6711   -3.9914    0.0000 N   0  0  0  0  0  0  0  0  0  0  0  0
   11.5180   -2.0020    0.0000 C   0  0  0  0  0  0  0  0  0  0  0  0
   10.3649   -1.3305    0.0000 O   0  0  0  0  0  0  0  0  0  0  0  0
   12.6711   -1.3305    0.0000 O   0  0  0  0  0  0  0  0  0  0  0  0
    8.0588   -5.3218    0.0000 O   0  0  0  0  0  0  0  0  0  0  0  0
    4.6123   -3.3325    0.0000 C   0  0  0  0  0  0  0  0  0  0  0  0
    3.4592   -3.9914    0.0000 C   0  0  0  0  0  0  0  0  0  0  0  0
    2.3061   -3.3325    0.0000 C   0  0  0  0  0  0  0  0  0  0  0  0
    2.3061   -2.0020    0.0000 C   0  0  0  0  0  0  0  0  0  0  0  0
    3.4592   -1.3305    0.0000 C   0  0  0  0  0  0  0  0  0  0  0  0
    4.6123   -2.0020    0.0000 C   0  0  0  0  0  0  0  0  0  0  0  0
    1.1531   -1.3305    0.0000 C   0  0  0  0  0  0  0  0  0  0  0  0
    1.1531    0.0000    0.0000 O   0  0  0  0  0  0  0  0  0  0  0  0
    0.0000   -2.0020    0.0000 O   0  0  0  0  0  0  0  0  0  0  0  0
  1  2  1  0  0  0  0
  1 12  1  0  0  0  0
  2  3  1  0  0  0  0
  3  4  1  0  0  0  0
  3 11  2  0  0  0  0
  4  5  1  0  0  0  0
  5  6  1  0  0  0  0
  6  7  1  1  0  0  0
  6  8  1  0  0  0  0
  8  9  2  0  0  0  0
  8 10  1  0  0  0  0
 12 13  1  0  0  0  0
 12 17  2  0  0  0  0
 13 14  2  0  0  0  0
 14 15  1  0  0  0  0
 15 16  2  0  0  0  0
 15 18  1  0  0  0  0
 16 17  1  0  0  0  0
 18 19  2  0  0  0  0
 18 20  1  0  0  0  0
M  END
>  <DSSTox_RID>
20660

>  <DSSTox_CID>
660

>  <DSSTox_Generic_SID>
20660

>  <DSSTox_FileID>
690_CPDBAS_v5d

>  <STRUCTURE_Formula>
C12H15N3O5

>  <STRUCTURE_MolecularWeight>
281.2676

>  <STRUCTURE_ChemicalType>
defined organic

>  <STRUCTURE_TestedForm_DefinedOrganic>
parent

>  <STRUCTURE_Shown>
tested chemical

>  <TestSubstance_ChemicalName>
N2-gamma-Glutamyl-p-hydrazinobenzoic acid

>  <TestSubstance_CASRN>
69644-85-5

>  <TestSubstance_Description>
single chemical compound

>  <ChemicalNote>
stereochem

>  <STRUCTURE_ChemicalName_IUPAC>
4-[2-(4-amino-4-carboxybutanoyl)hydrazino]benzoic acid

>  <STRUCTURE_SMILES>
N(NC(CC[C@H](N)C(=O)O)=O)C1C=CC(=CC=1)C(=O)O

>  <STRUCTURE_Parent_SMILES>
N(NC(CC[C@H](N)C(=O)O)=O)C1C=CC(=CC=1)C(=O)O

>  <STRUCTURE_InChI>
InChI=1/C12H15N3O5/c13-9(12(19)20)5-6-10(16)15-14-8-3-1-7(2-4-8)11(17)18/h1-4,9,14H,5-6,13H2,(H,15,16)(H,17,18)(H,19,20)/t9-/m0/s1/f/h15,17,19H

>  <STRUCTURE_InChIKey>
GCENCHHONAGMNP-HBVAIOKUDL

>  <StudyType>
Carcinogenicity

>  <Endpoint>
TD50; Tumor Target Sites

>  <Species>
mouse

>  <TD50_Mouse_mg>
277

>  <TD50_Mouse_mmol>
0.985

>  <ActivityScore_CPDBAS_Mouse>
28

>  <TargetSites_Mouse_Male>
subcutaneous tissue

>  <TargetSites_Mouse_Female>
no positive results

>  <ActivityOutcome_CPDBAS_Mouse>
active

>  <ActivityOutcome_CPDBAS_SingleCellCall>
active

>  <ChemicalPage_URL>
http://potency.berkeley.edu/chempages/N2-gamma-GLUTAMYL-p-HYDRAZINOBENZOIC%20ACID.html

$$$$



 19 19  0  0  1  0  0  0  0  0999 V2000
    3.4593   -2.6610    0.0000 C   0  0  0  0  0  0  0  0  0  0  0  0
    2.3062   -2.0021    0.0000 C   0  0  0  0  0  0  0  0  0  0  0  0
    2.3062   -0.6716    0.0000 C   0  0  0  0  0  0  0  0  0  0  0  0
    3.4593    0.0000    0.0000 C   0  0  0  0  0  0  0  0  0  0  0  0
    4.6124   -0.6716    0.0000 C   0  0  0  0  0  0  0  0  0  0  0  0
    4.6124   -2.0021    0.0000 C   0  0  0  0  0  0  0  0  0  0  0  0
    5.7654   -2.6610    0.0000 N   0  0  0  0  0  0  0  0  0  0  0  0
    6.9059   -2.0021    0.0000 N   0  0  0  0  0  0  0  0  0  0  0  0
    8.0589   -2.6610    0.0000 C   0  0  0  0  0  0  0  0  0  0  0  0
    9.2120   -2.0021    0.0000 C   0  0  0  0  0  0  0  0  0  0  0  0
   10.3651   -2.6610    0.0000 C   0  0  0  0  0  0  0  0  0  0  0  0
   11.5182   -2.0021    0.0000 C   0  0  1  0  0  0  0  0  0  0  0  0
   11.5182   -0.6716    0.0000 C   0  0  0  0  0  0  0  0  0  0  0  0
   10.3651    0.0000    0.0000 O   0  0  0  0  0  0  0  0  0  0  0  0
   12.6713    0.0000    0.0000 O   0  0  0  0  0  0  0  0  0  0  0  0
   12.6713   -2.6610    0.0000 N   0  0  0  0  0  0  0  0  0  0  0  0
    8.0589   -3.9915    0.0000 O   0  0  0  0  0  0  0  0  0  0  0  0
    1.1531    0.0000    0.0000 C   0  0  0  0  0  0  0  0  0  0  0  0
    0.0000   -0.6716    0.0000 O   0  0  0  0  0  0  0  0  0  0  0  0
  1  2  2  0  0  0  0
  1  6  1  0  0  0  0
  2  3  1  0  0  0  0
  3  4  2  0  0  0  0
  3 18  1  0  0  0  0
  4  5  1  0  0  0  0
  5  6  2  0  0  0  0
  6  7  1  0  0  0  0
  7  8  1  0  0  0  0
  8  9  1  0  0  0  0
  9 10  1  0  0  0  0
  9 17  2  0  0  0  0
 10 11  1  0  0  0  0
 11 12  1  0  0  0  0
 12 13  1  0  0  0  0
 12 16  1  1  0  0  0
 13 14  1  0  0  0  0
 13 15  2  0  0  0  0
 18 19  1  0  0  0  0
M  END
>  <DSSTox_RID>
20661

>  <DSSTox_CID>
661

>  <DSSTox_Generic_SID>
20661

>  <DSSTox_FileID>
691_CPDBAS_v5d

>  <STRUCTURE_Formula>
C12H17N3O4

>  <STRUCTURE_MolecularWeight>
267.2811

>  <STRUCTURE_ChemicalType>
defined organic

>  <STRUCTURE_TestedForm_DefinedOrganic>
parent

>  <STRUCTURE_Shown>
tested chemical

>  <TestSubstance_ChemicalName>
beta-N-[gamma-l(+)-Glutamyl]-4-hydroxymethylphenylhydrazine

>  <TestSubstance_CASRN>
2757-90-6

>  <TestSubstance_Description>
single chemical compound

>  <ChemicalNote>
stereochem

>  <STRUCTURE_ChemicalName_IUPAC>
2-amino-5-{2-[4-(hydroxymethyl)phenyl]hydrazino}-5-oxopentanoic acid

>  <STRUCTURE_SMILES>
C1=CC(=CC=C1NNC(CC[C@@H](C(O)=O)N)=O)CO

>  <STRUCTURE_Parent_SMILES>
C1=CC(=CC=C1NNC(CC[C@@H](C(O)=O)N)=O)CO

>  <STRUCTURE_InChI>
InChI=1/C12H17N3O4/c13-10(12(18)19)5-6-11(17)15-14-9-3-1-8(7-16)2-4-9/h1-4,10,14,16H,5-7,13H2,(H,15,17)(H,18,19)/t10-/m0/s1/f/h15,18H

>  <STRUCTURE_InChIKey>
SRSPQXBFDCGXIZ-NMTNGINVDV

>  <StudyType>
Carcinogenicity

>  <Endpoint>
TD50; Tumor Target Sites

>  <Species>
mouse

>  <ActivityScore_CPDBAS_Mouse>
0

>  <TD50_Mouse_Note>
no positive results

>  <TargetSites_Mouse_Male>
no positive results

>  <TargetSites_Mouse_Female>
no positive results

>  <ActivityOutcome_CPDBAS_Mouse>
inactive

>  <ActivityOutcome_CPDBAS_SingleCellCall>
inactive

>  <ActivityOutcome_CPDBAS_MultiCellCall>
inactive

>  <ActivityOutcome_CPDBAS_MultiCellCall_Details>
multisex inactive

>  <ChemicalPage_URL>
http://potency.berkeley.edu/chempages/beta-N-[gamma-L(+)-GLUTAMYL]-4-HYDROXYMETHYLPHENYL.html

$$$$



  7  6  0  0  0  0  0  0  0  0999 V2000
    0.0000   -0.6638    0.0000 O   0  0  0  0  0  0  0  0  0  0  0  0
    1.1548    0.0000    0.0000 C   0  0  0  0  0  0  0  0  0  0  0  0
    2.3027   -0.6638    0.0000 C   0  0  0  0  0  0  0  0  0  0  0  0
    3.4575    0.0000    0.0000 C   0  0  0  0  0  0  0  0  0  0  0  0
    4.6122   -0.6638    0.0000 C   0  0  0  0  0  0  0  0  0  0  0  0
    5.7601    0.0000    0.0000 C   0  0  0  0  0  0  0  0  0  0  0  0
    6.9149   -0.6638    0.0000 O   0  0  0  0  0  0  0  0  0  0  0  0
  1  2  2  0  0  0  0
  2  3  1  0  0  0  0
  3  4  1  0  0  0  0
  4  5  1  0  0  0  0
  5  6  1  0  0  0  0
  6  7  2  0  0  0  0
M  END
>  <DSSTox_RID>
40797

>  <DSSTox_CID>
5355

>  <DSSTox_Generic_SID>
25355

>  <DSSTox_FileID>
692_CPDBAS_v5d

>  <STRUCTURE_Formula>
C5H8O2

>  <STRUCTURE_MolecularWeight>
100.1158

>  <STRUCTURE_ChemicalType>
defined organic

>  <STRUCTURE_TestedForm_DefinedOrganic>
parent

>  <STRUCTURE_Shown>
tested chemical

>  <TestSubstance_ChemicalName>
Glutaraldehyde

>  <TestSubstance_CASRN>
111-30-8

>  <TestSubstance_Description>
single chemical compound

>  <STRUCTURE_ChemicalName_IUPAC>
glutaraldehyde

>  <STRUCTURE_SMILES>
O=CCCCC=O

>  <STRUCTURE_Parent_SMILES>
O=CCCCC=O

>  <STRUCTURE_InChI>
InChI=1/C5H8O2/c6-4-2-1-3-5-7/h4-5H,1-3H2

>  <STRUCTURE_InChIKey>
SXRSQZLOMIGNAQ-UHFFFAOYAO

>  <StudyType>
Carcinogenicity

>  <Endpoint>
TD50; Tumor Target Sites

>  <Species>
rat; mouse

>  <ActivityOutcome_CPDBAS_Mutagenicity>
active

>  <ActivityScore_CPDBAS_Rat>
0

>  <TD50_Rat_Note>
no positive results

>  <TargetSites_Rat_Male>
no positive results

>  <TargetSites_Rat_Female>
no positive results

>  <ActivityOutcome_CPDBAS_Rat>
inactive

>  <ActivityScore_CPDBAS_Mouse>
0

>  <TD50_Mouse_Note>
no positive results

>  <TargetSites_Mouse_Male>
no positive results

>  <TargetSites_Mouse_Female>
no positive results

>  <ActivityOutcome_CPDBAS_Mouse>
inactive

>  <ActivityOutcome_CPDBAS_SingleCellCall>
inactive

>  <ActivityOutcome_CPDBAS_MultiCellCall>
inactive

>  <ActivityOutcome_CPDBAS_MultiCellCall_Details>
multisex inactive; multispecies inactive

>  <Note_CPDBAS>
Rat added v5a; Mouse added v5a; Mutagenicity_SAL_CPDB added v5a; chemical added v5a

>  <ChemicalPage_URL>
http://potency.berkeley.edu/chempages/GLUTARALDEHYDE.html

$$$$



  6  5  0  0  0  0  0  0  0  0999 V2000
    2.6616    0.0000    0.0000 O   0  0  0  0  0  0  0  0  0  0  0  0
    1.9952   -1.1492    0.0000 C   0  0  3  0  0  0  0  0  0  0  0  0
    2.6616   -2.3025    0.0000 C   0  0  0  0  0  0  0  0  0  0  0  0
    3.9905   -2.3025    0.0000 O   0  0  0  0  0  0  0  0  0  0  0  0
    0.6664   -1.1492    0.0000 C   0  0  0  0  0  0  0  0  0  0  0  0
    0.0000   -2.3025    0.0000 Cl  0  0  0  0  0  0  0  0  0  0  0  0
  1  2  1  0  0  0  0
  2  3  1  0  0  0  0
  2  5  1  0  0  0  0
  3  4  1  0  0  0  0
  5  6  1  0  0  0  0
M  END
>  <DSSTox_RID>
20664

>  <DSSTox_CID>
664

>  <DSSTox_Generic_SID>
20664

>  <DSSTox_FileID>
695_CPDBAS_v5d

>  <STRUCTURE_Formula>
C3H7ClO2

>  <STRUCTURE_MolecularWeight>
110.5395

>  <STRUCTURE_ChemicalType>
defined organic

>  <STRUCTURE_TestedForm_DefinedOrganic>
parent

>  <STRUCTURE_Shown>
tested chemical

>  <TestSubstance_ChemicalName>
Glycerol alpha-monochlorohydrin

>  <TestSubstance_CASRN>
96-24-2

>  <TestSubstance_Description>
single chemical compound

>  <STRUCTURE_ChemicalName_IUPAC>
3-chloropropane-1,2-diol

>  <STRUCTURE_SMILES>
OC(CO)CCl

>  <STRUCTURE_Parent_SMILES>
OC(CO)CCl

>  <STRUCTURE_InChI>
InChI=1/C3H7ClO2/c4-1-3(6)2-5/h3,5-6H,1-2H2

>  <STRUCTURE_InChIKey>
SSZWWUDQMAHNAQ-UHFFFAOYAR

>  <StudyType>
Carcinogenicity

>  <Endpoint>
TD50; Tumor Target Sites

>  <Species>
rat

>  <ActivityOutcome_CPDBAS_Mutagenicity>
active

>  <ActivityScore_CPDBAS_Rat>
0

>  <TD50_Rat_Note>
no positive results

>  <TargetSites_Rat_Male>
no positive results

>  <TargetSites_Rat_Female>
no positive results

>  <ActivityOutcome_CPDBAS_Rat>
inactive

>  <ActivityOutcome_CPDBAS_SingleCellCall>
inactive

>  <ActivityOutcome_CPDBAS_MultiCellCall>
inactive

>  <ActivityOutcome_CPDBAS_MultiCellCall_Details>
multisex inactive

>  <ChemicalPage_URL>
http://potency.berkeley.edu/chempages/GLYCEROL%20alpha-MONOCHLOROHYDRIN.html

$$$$



  5  5  0  0  0  0  0  0  0  0999 V2000
    0.0000   -1.1519    0.0000 O   0  0  0  0  0  0  0  0  0  0  0  0
    1.1519   -1.8168    0.0000 C   0  0  0  0  0  0  0  0  0  0  0  0
    2.3037   -1.1519    0.0000 C   0  0  3  0  0  0  0  0  0  0  0  0
    2.9687    0.0000    0.0000 C   0  0  0  0  0  0  0  0  0  0  0  0
    3.6336   -1.1519    0.0000 O   0  0  0  0  0  0  0  0  0  0  0  0
  1  2  2  0  0  0  0
  2  3  1  0  0  0  0
  3  4  1  0  0  0  0
  3  5  1  0  0  0  0
  4  5  1  0  0  0  0
M  END
>  <DSSTox_RID>
20665

>  <DSSTox_CID>
665

>  <DSSTox_Generic_SID>
20665

>  <DSSTox_FileID>
696_CPDBAS_v5d

>  <STRUCTURE_Formula>
C3H4O2

>  <STRUCTURE_MolecularWeight>
72.0627

>  <STRUCTURE_ChemicalType>
defined organic

>  <STRUCTURE_TestedForm_DefinedOrganic>
parent

>  <STRUCTURE_Shown>
tested chemical

>  <TestSubstance_ChemicalName>
Glycidaldehyde

>  <TestSubstance_CASRN>
765-34-4

>  <TestSubstance_Description>
single chemical compound

>  <STRUCTURE_ChemicalName_IUPAC>
oxirane-2-carbaldehyde

>  <STRUCTURE_SMILES>
O=CC1CO1

>  <STRUCTURE_Parent_SMILES>
O=CC1CO1

>  <STRUCTURE_InChI>
InChI=1/C3H4O2/c4-1-3-2-5-3/h1,3H,2H2

>  <STRUCTURE_InChIKey>
IWYRWIUNAVNFPE-UHFFFAOYAZ

>  <StudyType>
Carcinogenicity

>  <Endpoint>
TD50; Tumor Target Sites

>  <Species>
rat

>  <ActivityOutcome_CPDBAS_Mutagenicity>
active

>  <ActivityScore_CPDBAS_Rat>
0

>  <TD50_Rat_Note>
no positive results

>  <TargetSites_Rat_Female>
no positive results

>  <ActivityOutcome_CPDBAS_Rat>
inactive

>  <ActivityOutcome_CPDBAS_SingleCellCall>
inactive

>  <ChemicalPage_URL>
http://potency.berkeley.edu/chempages/GLYCIDALDEHYDE.html

$$$$



  5  5  0  0  0  0  0  0  0  0999 V2000
    0.0000   -1.1519    0.0000 O   0  0  0  0  0  0  0  0  0  0  0  0
    1.1519   -1.8168    0.0000 C   0  0  0  0  0  0  0  0  0  0  0  0
    2.3037   -1.1519    0.0000 C   0  0  3  0  0  0  0  0  0  0  0  0
    2.9687    0.0000    0.0000 C   0  0  0  0  0  0  0  0  0  0  0  0
    3.6336   -1.1519    0.0000 O   0  0  0  0  0  0  0  0  0  0  0  0
  1  2  1  0  0  0  0
  2  3  1  0  0  0  0
  3  4  1  0  0  0  0
  3  5  1  0  0  0  0
  4  5  1  0  0  0  0
M  END
>  <DSSTox_RID>
20666

>  <DSSTox_CID>
666

>  <DSSTox_Generic_SID>
20666

>  <DSSTox_FileID>
697_CPDBAS_v5d

>  <STRUCTURE_Formula>
C3H6O2

>  <STRUCTURE_MolecularWeight>
74.0785

>  <STRUCTURE_ChemicalType>
defined organic

>  <STRUCTURE_TestedForm_DefinedOrganic>
parent

>  <STRUCTURE_Shown>
tested chemical

>  <TestSubstance_ChemicalName>
Glycidol

>  <TestSubstance_CASRN>
556-52-5

>  <TestSubstance_Description>
single chemical compound

>  <STRUCTURE_ChemicalName_IUPAC>
oxiran-2-ylmethanol

>  <STRUCTURE_SMILES>
OCC1CO1

>  <STRUCTURE_Parent_SMILES>
OCC1CO1

>  <STRUCTURE_InChI>
InChI=1/C3H6O2/c4-1-3-2-5-3/h3-4H,1-2H2

>  <STRUCTURE_InChIKey>
CTKINSOISVBQLD-UHFFFAOYAN

>  <StudyType>
Carcinogenicity

>  <Endpoint>
TD50; Tumor Target Sites

>  <Species>
rat; mouse; hamster

>  <ActivityOutcome_CPDBAS_Mutagenicity>
active

>  <TD50_Rat_mg>
4.28

>  <TD50_Rat_mmol>
0.0578

>  <ActivityScore_CPDBAS_Rat>
39

>  <TD50_Rat_Note>
TD50 is harmonic mean of more than one positive test

>  <TargetSites_Rat_Male>
ear Zymbals gland; large intestine; mammary gland; nervous system; peritoneal cavity; skin; stomach; thyroid gland

>  <TargetSites_Rat_Female>
clitoral gland; hematopoietic system; mammary gland; nervous system; oral cavity; stomach; thyroid gland

>  <ActivityOutcome_CPDBAS_Rat>
active

>  <TD50_Mouse_mg>
34.7

>  <TD50_Mouse_mmol>
0.468

>  <ActivityScore_CPDBAS_Mouse>
32

>  <TD50_Mouse_Note>
TD50 is harmonic mean of more than one positive test

>  <TargetSites_Mouse_Male>
harderian gland; liver; lung; skin; stomach

>  <TargetSites_Mouse_Female>
harderian gland; mammary gland; skin; subcutaneous tissue; uterus

>  <ActivityOutcome_CPDBAS_Mouse>
active

>  <TD50_Hamster_mg>
56.1

>  <TD50_Hamster_mmol>
0.757

>  <ActivityScore_CPDBAS_Hamster>
29

>  <TD50_Hamster_Note>
TD50 is harmonic mean of more than one positive test

>  <TargetSites_Hamster_Male>
vascular system

>  <TargetSites_Hamster_Female>
vascular system

>  <ActivityOutcome_CPDBAS_Hamster>
active

>  <ActivityOutcome_CPDBAS_SingleCellCall>
active

>  <ActivityOutcome_CPDBAS_MultiCellCall>
active

>  <ActivityOutcome_CPDBAS_MultiCellCall_Details>
multisite active; multisex active; multispecies active

>  <NTP_TechnicalReport>
TR 374

>  <ChemicalPage_URL>
http://potency.berkeley.edu/chempages/GLYCIDOL.html

$$$$



  5  4  0  0  0  0  0  0  0  0999 V2000
    2.3124   -1.3174    0.0000 C   0  0  0  0  0  0  0  0  0  0  0  0
    2.3124    0.0000    0.0000 O   0  0  0  0  0  0  0  0  0  0  0  0
    3.4669   -1.9900    0.0000 O   0  0  0  0  0  0  0  0  0  0  0  0
    0.0000   -1.3001    0.0000 N   0  0  0  0  0  0  0  0  0  0  0  0
    1.1718   -1.9726    0.0000 C   0  0  0  0  0  0  0  0  0  0  0  0
  1  2  2  0  0  0  0
  1  3  1  0  0  0  0
  1  5  1  0  0  0  0
  4  5  1  0  0  0  0
M  END
>  <DSSTox_RID>
20667

>  <DSSTox_CID>
667

>  <DSSTox_Generic_SID>
20667

>  <DSSTox_FileID>
698_CPDBAS_v5d

>  <STRUCTURE_Formula>
C2H5NO2

>  <STRUCTURE_MolecularWeight>
75.0666

>  <STRUCTURE_ChemicalType>
defined organic

>  <STRUCTURE_TestedForm_DefinedOrganic>
parent

>  <STRUCTURE_Shown>
tested chemical

>  <TestSubstance_ChemicalName>
Glycine

>  <TestSubstance_CASRN>
56-40-6

>  <TestSubstance_Description>
single chemical compound

>  <STRUCTURE_ChemicalName_IUPAC>
glycine

>  <STRUCTURE_SMILES>
NCC(O)=O

>  <STRUCTURE_Parent_SMILES>
NCC(O)=O

>  <STRUCTURE_InChI>
InChI=1/C2H5NO2/c3-1-2(4)5/h1,3H2,(H,4,5)/f/h4H

>  <STRUCTURE_InChIKey>
DHMQDGOQFOQNFH-JLSKMEETCN

>  <StudyType>
Carcinogenicity

>  <Endpoint>
TD50; Tumor Target Sites

>  <Species>
rat

>  <ActivityOutcome_CPDBAS_Mutagenicity>
inactive

>  <TD50_Rat_mg>
25700

>  <TD50_Rat_mmol>
342

>  <ActivityScore_CPDBAS_Rat>
1

>  <TargetSites_Rat_Male>
no positive results

>  <TargetSites_Rat_Female>
kidney

>  <ActivityOutcome_CPDBAS_Rat>
active

>  <ActivityOutcome_CPDBAS_SingleCellCall>
active

>  <Note_CPDBAS>
Rat added v2a

>  <ChemicalPage_URL>
http://potency.berkeley.edu/chempages/GLYCINE.html

$$$$



  6  6  0  0  0  0  0  0  0  0999 V2000
    0.0000   -1.0738    0.0000 O   0  0  0  0  0  0  0  0  0  0  0  0
    1.3304   -1.0738    0.0000 S   0  0  0  0  0  0  0  0  0  0  0  0
    2.1104    0.0000    0.0000 O   0  0  0  0  0  0  0  0  0  0  0  0
    3.3767   -0.4086    0.0000 C   0  0  0  0  0  0  0  0  0  0  0  0
    3.3767   -1.7390    0.0000 C   0  0  0  0  0  0  0  0  0  0  0  0
    2.1104   -2.1509    0.0000 O   0  0  0  0  0  0  0  0  0  0  0  0
  1  2  2  0  0  0  0
  2  3  1  0  0  0  0
  2  6  1  0  0  0  0
  3  4  1  0  0  0  0
  4  5  1  0  0  0  0
  5  6  1  0  0  0  0
M  END
>  <DSSTox_RID>
20668

>  <DSSTox_CID>
668

>  <DSSTox_Generic_SID>
20668

>  <DSSTox_FileID>
699_CPDBAS_v5d

>  <STRUCTURE_Formula>
C2H4O3S

>  <STRUCTURE_MolecularWeight>
108.1118

>  <STRUCTURE_ChemicalType>
defined organic

>  <STRUCTURE_TestedForm_DefinedOrganic>
parent

>  <STRUCTURE_Shown>
tested chemical

>  <TestSubstance_ChemicalName>
Glycol sulfite

>  <TestSubstance_CASRN>
3741-38-6

>  <TestSubstance_Description>
single chemical compound

>  <STRUCTURE_ChemicalName_IUPAC>
1,3,2-dioxathiolane 2-oxide

>  <STRUCTURE_SMILES>
O=S1OCCO1

>  <STRUCTURE_Parent_SMILES>
O=S1OCCO1

>  <STRUCTURE_InChI>
InChI=1/C2H4O3S/c3-6-4-1-2-5-6/h1-2H2

>  <STRUCTURE_InChIKey>
WDXYVJKNSMILOQ-UHFFFAOYAX

>  <StudyType>
Carcinogenicity

>  <Endpoint>
TD50; Tumor Target Sites

>  <Species>
mouse

>  <ActivityScore_CPDBAS_Mouse>
0

>  <TD50_Mouse_Note>
no positive results

>  <TargetSites_Mouse_Female>
no positive results

>  <ActivityOutcome_CPDBAS_Mouse>
inactive

>  <ActivityOutcome_CPDBAS_SingleCellCall>
inactive

>  <ChemicalPage_URL>
http://potency.berkeley.edu/chempages/GLYCOL%20SULFITE.html

$$$$



 37 41  0  0  1  0  0  0  0  0999 V2000
    6.9160   -4.8390    0.0000 C   0  0  0  0  0  0  0  0  0  0  0  0
    5.7596   -6.8599    0.0000 C   0  0  1  0  0  0  0  0  0  0  0  0
    6.9160   -6.1863    0.0000 C   0  0  2  0  0  0  0  0  0  0  0  0
    3.4693   -6.8599    0.0000 C   0  0  2  0  0  0  0  0  0  0  0  0
    4.6144   -6.1863    0.0000 C   0  0  1  0  0  0  0  0  0  0  0  0
    5.7596   -4.1878    0.0000 C   0  0  0  0  0  0  0  0  0  0  0  0
    4.6144   -4.8390    0.0000 C   0  0  0  0  0  0  0  0  0  0  0  0
    3.4693   -8.1960    0.0000 C   0  0  2  0  0  0  0  0  0  0  0  0
    8.0388   -4.1878    0.0000 C   0  0  2  0  0  0  0  0  0  0  0  0
    2.3128   -8.8584    0.0000 C   0  0  0  0  0  0  0  0  0  0  0  0
    9.1952   -2.1893    0.0000 C   0  0  1  0  0  0  0  0  0  0  0  0
    8.0388   -2.8517    0.0000 C   0  0  0  0  0  0  0  0  0  0  0  0
    9.1952   -4.8390    0.0000 C   0  0  1  0  0  0  0  0  0  0  0  0
    5.7596   -8.1960    0.0000 C   0  0  0  0  0  0  0  0  0  0  0  0
    9.9699   -1.0329    0.0000 C   0  0  0  0  0  0  0  0  0  0  0  0
    2.3128   -6.1863    0.0000 C   0  0  0  0  0  0  0  0  0  0  0  0
    8.0388   -6.8599    0.0000 C   0  0  0  0  0  0  0  0  0  0  0  0
    4.6144   -8.8584    0.0000 C   0  0  0  0  0  0  0  0  0  0  0  0
    1.1676   -8.1960    0.0000 C   0  0  2  0  0  0  0  0  0  0  0  0
    3.4468   -4.2439    0.0000 O   0  0  0  0  0  0  0  0  0  0  0  0
    9.1952   -6.1863    0.0000 C   0  0  0  0  0  0  0  0  0  0  0  0
   10.3404   -2.8517    0.0000 C   0  0  0  0  0  0  0  0  0  0  0  0
   10.3404   -4.1878    0.0000 C   0  0  0  0  0  0  0  0  0  0  0  0
    9.3636    0.0000    0.0000 O   0  0  0  0  0  0  0  0  0  0  0  0
    1.1676   -6.8599    0.0000 C   0  0  0  0  0  0  0  0  0  0  0  0
    5.7821   -5.6698    0.0000 C   0  0  0  0  0  0  0  0  0  0  0  0
    3.5029   -5.4677    0.0000 C   0  0  0  0  0  0  0  0  0  0  0  0
    6.9497   -7.4774    0.0000 C   0  0  0  0  0  0  0  0  0  0  0  0
   11.2274   -1.0329    0.0000 O   0  0  0  0  0  0  0  0  0  0  0  0
    1.6729  -10.3628    0.0000 C   0  0  0  0  0  0  0  0  0  0  0  0
    2.8068  -10.3067    0.0000 C   0  0  0  0  0  0  0  0  0  0  0  0
    0.0000   -8.8921    0.0000 O   0  0  0  0  0  0  0  0  0  0  0  0
    8.4205   -1.0778    0.0000 C   0  0  0  0  0  0  0  0  0  0  0  0
    9.1952   -3.6152    0.0000 C   0  0  0  0  0  0  0  0  0  0  0  0
    4.5920   -7.3876    0.0000 H   0  0  0  0  0  0  0  0  0  0  0  0
    3.5029   -9.4759    0.0000 H   0  0  0  0  0  0  0  0  0  0  0  0
    8.0612   -5.5239    0.0000 H   0  0  0  0  0  0  0  0  0  0  0  0
  1  3  1  0  0  0  0
  1  6  2  0  0  0  0
  1  9  1  0  0  0  0
  2  3  1  0  0  0  0
  2 14  1  0  0  0  0
  2 26  1  1  0  0  0
  2  5  1  0  0  0  0
  3 17  1  0  0  0  0
  3 28  1  6  0  0  0
  4  5  1  0  0  0  0
  4  8  1  0  0  0  0
  4 16  1  0  0  0  0
  4 27  1  1  0  0  0
  5  7  1  0  0  0  0
  5 35  1  6  0  0  0
  6  7  1  0  0  0  0
  7 20  2  0  0  0  0
  8 10  1  0  0  0  0
  8 36  1  6  0  0  0
  8 18  1  0  0  0  0
  9 12  1  0  0  0  0
  9 13  1  0  0  0  0
  9 37  1  1  0  0  0
 10 30  1  0  0  0  0
 10 31  1  0  0  0  0
 10 19  1  0  0  0  0
 11 12  1  0  0  0  0
 11 15  1  0  0  0  0
 11 33  1  6  0  0  0
 11 22  1  0  0  0  0
 13 21  1  0  0  0  0
 13 23  1  0  0  0  0
 13 34  1  1  0  0  0
 14 18  1  0  0  0  0
 15 24  2  0  0  0  0
 15 29  1  0  0  0  0
 16 25  1  0  0  0  0
 17 21  1  0  0  0  0
 19 25  1  0  0  0  0
 19 32  1  1  0  0  0
 22 23  1  0  0  0  0
M  END
>  <DSSTox_RID>
20669

>  <DSSTox_CID>
669

>  <DSSTox_Generic_SID>
20669

>  <DSSTox_FileID>
700_CPDBAS_v5d

>  <STRUCTURE_Formula>
C30H46O4

>  <STRUCTURE_MolecularWeight>
470.691

>  <STRUCTURE_ChemicalType>
defined organic

>  <STRUCTURE_TestedForm_DefinedOrganic>
parent

>  <STRUCTURE_Shown>
tested chemical

>  <TestSubstance_ChemicalName>
Glycyrrhetinic acid

>  <TestSubstance_CASRN>
471-53-4

>  <TestSubstance_Description>
single chemical compound

>  <ChemicalNote>
stereochem

>  <STRUCTURE_ChemicalName_IUPAC>
(3beta)-3-hydroxy-11-oxoolean-12-en-30-oic acid

>  <STRUCTURE_SMILES>
OC(=O)[C@]3(C)C[C@H]4/C5=C/C(=O)[C@H]2[C@@](C)(CC[C@@H]1[C@]2(C)CC[C@H](O)C1(C)C)[C@]5(C)CC[C@@]4(C)CC3

>  <STRUCTURE_Parent_SMILES>
OC(=O)[C@]3(C)C[C@H]4/C5=C/C(=O)[C@H]2[C@@](C)(CC[C@@H]1[C@]2(C)CC[C@H](O)C1(C)C)[C@]5(C)CC[C@@]4(C)CC3

>  <STRUCTURE_InChI>
InChI=1/C30H46O4/c1-25(2)21-8-11-30(7)23(28(21,5)10-9-22(25)32)20(31)16-18-19-17-27(4,24(33)34)13-12-26(19,3)14-15-29(18,30)6/h16,19,21-23,32H,8-15,17H2,1-7H3,(H,33,34)/t19-,21-,22-,23+,26+,27-,28-,29+,30+/m0/s1/f/h33H

>  <STRUCTURE_InChIKey>
MPDGHEJMBKOTSU-NSABVBEKDS

>  <StudyType>
Carcinogenicity

>  <Endpoint>
TD50; Tumor Target Sites

>  <Species>
rat

>  <ActivityScore_CPDBAS_Rat>
0

>  <TD50_Rat_Note>
no positive results

>  <TargetSites_Rat_Male>
no positive results

>  <ActivityOutcome_CPDBAS_Rat>
inactive

>  <ActivityOutcome_CPDBAS_SingleCellCall>
inactive

>  <ChemicalPage_URL>
http://potency.berkeley.edu/chempages/GLYCYRRHETINIC%20ACID.html

$$$$



 24 26  0  0  1  0  0  0  0  0999 V2000
    6.2320   -1.0924    0.0000 O   0  0  0  0  0  0  0  0  0  0  0  0
    5.8471   -2.3097    0.0000 C   0  0  0  0  0  0  0  0  0  0  0  0
    4.6298   -2.7050    0.0000 C   0  0  0  0  0  0  0  0  0  0  0  0
    4.6298   -3.9743    0.0000 C   0  0  0  0  0  0  0  0  0  0  0  0
    5.8471   -4.3593    0.0000 O   0  0  0  0  0  0  0  0  0  0  0  0
    6.5857   -3.3293    0.0000 C   0  0  1  0  0  0  0  0  0  0  0  0
    7.2308   -2.2369    0.0000 C   0  0  0  0  0  0  0  0  0  0  0  0
    8.5001   -2.2369    0.0000 C   0  0  0  0  0  0  0  0  0  0  0  0
    9.1347   -3.3293    0.0000 C   0  0  0  0  0  0  0  0  0  0  0  0
   10.4040   -3.3293    0.0000 O   0  0  0  0  0  0  0  0  0  0  0  0
    8.5001   -4.4321    0.0000 C   0  0  0  0  0  0  0  0  0  0  0  0
    7.2308   -4.4321    0.0000 C   0  0  1  0  0  0  0  0  0  0  0  0
    6.5857   -5.5453    0.0000 C   0  0  0  0  0  0  0  0  0  0  0  0
    7.0019   -0.9780    0.0000 O   0  0  0  0  0  0  0  0  0  0  0  0
    7.9799   -0.1665    0.0000 C   0  0  0  0  0  0  0  0  0  0  0  0
    3.5374   -4.6090    0.0000 C   0  0  0  0  0  0  0  0  0  0  0  0
    3.5374   -5.8783    0.0000 Cl  0  0  0  0  0  0  0  0  0  0  0  0
    2.4241   -3.9743    0.0000 C   0  0  0  0  0  0  0  0  0  0  0  0
    1.3213   -4.6090    0.0000 O   0  0  0  0  0  0  0  0  0  0  0  0
    0.0000   -3.1316    0.0000 C   0  0  0  0  0  0  0  0  0  0  0  0
    2.4241   -2.7050    0.0000 C   0  0  0  0  0  0  0  0  0  0  0  0
    3.5374   -2.0600    0.0000 C   0  0  0  0  0  0  0  0  0  0  0  0
    3.5374   -0.7907    0.0000 O   0  0  0  0  0  0  0  0  0  0  0  0
    1.6334    0.0000    0.0000 C   0  0  0  0  0  0  0  0  0  0  0  0
  1  2  2  0  0  0  0
  2  3  1  0  0  0  0
  6  2  1  1  0  0  0
  3  4  2  0  0  0  0
  3 22  1  0  0  0  0
  4  5  1  0  0  0  0
  4 16  1  0  0  0  0
  6  5  1  6  0  0  0
  6  7  1  0  0  0  0
  6 12  1  0  0  0  0
  7  8  2  0  0  0  0
  7 14  1  0  0  0  0
  8  9  1  0  0  0  0
  9 10  2  0  0  0  0
  9 11  1  0  0  0  0
 11 12  1  0  0  0  0
 12 13  1  1  0  0  0
 14 15  1  0  0  0  0
 16 17  1  0  0  0  0
 16 18  2  0  0  0  0
 18 19  1  0  0  0  0
 18 21  1  0  0  0  0
 19 20  1  0  0  0  0
 21 22  2  0  0  0  0
 22 23  1  0  0  0  0
 23 24  1  0  0  0  0
M  END
>  <DSSTox_RID>
20674

>  <DSSTox_CID>
674

>  <DSSTox_Generic_SID>
20674

>  <DSSTox_FileID>
705_CPDBAS_v5d

>  <STRUCTURE_Formula>
C17H17ClO6

>  <STRUCTURE_MolecularWeight>
352.7663

>  <STRUCTURE_ChemicalType>
defined organic

>  <STRUCTURE_TestedForm_DefinedOrganic>
parent

>  <STRUCTURE_Shown>
tested chemical

>  <TestSubstance_ChemicalName>
Griseofulvin

>  <TestSubstance_CASRN>
126-07-8

>  <TestSubstance_Description>
single chemical compound

>  <ChemicalNote>
stereochem

>  <STRUCTURE_ChemicalName_IUPAC>
(2S,6'R)-7-chloro-2',4,6-trimethoxy-6'-methyl-3H,4'H-spiro[1-benzofuran-2,1'-cyclohex[2]ene]-3,4'-dione

>  <STRUCTURE_SMILES>
O=C2C1=C(OC)C=C(OC)C(Cl)=C1O[C@]32C(OC)=CC(C[C@@](C)3[H])=O

>  <STRUCTURE_Parent_SMILES>
O=C2C1=C(OC)C=C(OC)C(Cl)=C1O[C@]32C(OC)=CC(C[C@@](C)3[H])=O

>  <STRUCTURE_InChI>
InChI=1/C17H17ClO6/c1-8-5-9(19)6-12(23-4)17(8)16(20)13-10(21-2)7-11(22-3)14(18)15(13)24-17/h6-8H,5H2,1-4H3/t8-,17+/m1/s1

>  <STRUCTURE_InChIKey>
DDUHZTYCFQRHIY-RBHXEPJQBE

>  <StudyType>
Carcinogenicity

>  <Endpoint>
TD50; Tumor Target Sites

>  <Species>
mouse; hamster

>  <ActivityOutcome_CPDBAS_Mutagenicity>
inactive

>  <TD50_Mouse_mg>
13.8

>  <TD50_Mouse_mmol>
0.0391

>  <ActivityScore_CPDBAS_Mouse>
44

>  <TD50_Mouse_Note>
TD50 is harmonic mean of more than one positive test

>  <TargetSites_Mouse_Male>
liver

>  <TargetSites_Mouse_Female>
mammary gland

>  <ActivityOutcome_CPDBAS_Mouse>
active

>  <ActivityScore_CPDBAS_Hamster>
0

>  <TD50_Hamster_Note>
no positive results

>  <TargetSites_Hamster_Male>
no positive results

>  <TargetSites_Hamster_Female>
no positive results

>  <ActivityOutcome_CPDBAS_Hamster>
inactive

>  <ActivityOutcome_CPDBAS_SingleCellCall>
active

>  <ActivityOutcome_CPDBAS_MultiCellCall>
active

>  <ActivityOutcome_CPDBAS_MultiCellCall_Details>
multisite active; multisex active

>  <Note_CPDBAS>
TD50_Mouse modified v2a; TargetSites_Mouse_Female modified v2a

>  <ChemicalPage_URL>
http://potency.berkeley.edu/chempages/GRISEOFULVIN.html

$$$$



 23 26  0  0  1  0  0  0  0  0999 V2000
    5.2178   -5.4270    0.0000 O   0  0  0  0  0  0  0  0  0  0  0  0
    5.2975   -4.3615    0.0000 C   0  0  1  0  0  0  0  0  0  0  0  0
    5.2975   -3.0172    0.0000 C   0  0  1  0  0  0  0  0  0  0  0  0
    4.0130   -2.5990    0.0000 C   0  0  0  0  0  0  0  0  0  0  0  0
    3.4653   -1.3742    0.0000 C   0  0  0  0  0  0  0  0  0  0  0  0
    2.1309   -1.2248    0.0000 C   0  0  0  0  0  0  0  0  0  0  0  0
    1.3343   -2.3201    0.0000 C   0  0  0  0  0  0  0  0  0  0  0  0
    1.8820   -3.5449    0.0000 C   0  0  0  0  0  0  0  0  0  0  0  0
    3.2263   -3.6844    0.0000 C   0  0  0  0  0  0  0  0  0  0  0  0
    4.0130   -4.7797    0.0000 C   0  0  0  0  0  0  0  0  0  0  0  0
    0.0000   -2.1807    0.0000 O   0  0  0  0  0  0  0  0  0  0  0  0
    1.5833    0.0000    0.0000 O   0  0  0  0  0  0  0  0  0  0  0  0
    6.4626   -2.3401    0.0000 C   0  0  0  0  0  0  0  0  0  0  0  0
    7.6276   -3.0172    0.0000 C   0  0  0  0  0  0  0  0  0  0  0  0
    8.7927   -2.3401    0.0000 C   0  0  0  0  0  0  0  0  0  0  0  0
    8.7927   -0.9958    0.0000 C   0  0  0  0  0  0  0  0  0  0  0  0
    7.6276   -0.3286    0.0000 C   0  0  0  0  0  0  0  0  0  0  0  0
    6.4626   -0.9958    0.0000 C   0  0  0  0  0  0  0  0  0  0  0  0
    9.9577   -0.3286    0.0000 O   0  0  0  0  0  0  0  0  0  0  0  0
    9.9577   -3.0172    0.0000 O   0  0  0  0  0  0  0  0  0  0  0  0
    7.6276   -4.3615    0.0000 O   0  0  0  0  0  0  0  0  0  0  0  0
    6.4626   -5.0386    0.0000 C   0  0  0  0  0  0  0  0  0  0  0  0
    5.3373   -1.8023    0.0000 H   0  0  0  0  0  0  0  0  0  0  0  0
  2  1  1  6  0  0  0
  2  3  1  0  0  0  0
  2 10  1  0  0  0  0
  2 22  1  0  0  0  0
  3  4  1  0  0  0  0
  3 13  1  0  0  0  0
  3 23  1  6  0  0  0
  4  5  2  0  0  0  0
  4  9  1  0  0  0  0
  5  6  1  0  0  0  0
  6  7  2  0  0  0  0
  6 12  1  0  0  0  0
  7  8  1  0  0  0  0
  7 11  1  0  0  0  0
  8  9  2  0  0  0  0
  9 10  1  0  0  0  0
 13 14  2  0  0  0  0
 13 18  1  0  0  0  0
 14 15  1  0  0  0  0
 14 21  1  0  0  0  0
 15 16  2  0  0  0  0
 15 20  1  0  0  0  0
 16 17  1  0  0  0  0
 16 19  1  0  0  0  0
 17 18  2  0  0  0  0
 21 22  1  0  0  0  0
M  END
>  <DSSTox_RID>
20678

>  <DSSTox_CID>
678

>  <DSSTox_Generic_SID>
20678

>  <DSSTox_FileID>
709_CPDBAS_v5d

>  <STRUCTURE_Formula>
C16H14O6

>  <STRUCTURE_MolecularWeight>
302.2788

>  <STRUCTURE_ChemicalType>
defined organic

>  <STRUCTURE_TestedForm_DefinedOrganic>
parent

>  <STRUCTURE_Shown>
tested chemical

>  <TestSubstance_ChemicalName>
Hematoxylin

>  <TestSubstance_CASRN>
517-28-2

>  <TestSubstance_Description>
single chemical compound

>  <ChemicalNote>
stereochem, C.I. 75290

>  <STRUCTURE_ChemicalName_IUPAC>
(6aR,11bS)-7,11b-dihydroindeno[2,1-c]chromene-3,4,6a,9,10(6H)-pentol

>  <STRUCTURE_SMILES>
OC1=C(O)C=C4C(C[C@](COC2=C3C=CC(O)=C2O)([C@@]34[H])O)=C1

>  <STRUCTURE_Parent_SMILES>
OC1=C(O)C=C4C(C[C@](COC2=C3C=CC(O)=C2O)([C@@]34[H])O)=C1

>  <STRUCTURE_InChI>
InChI=1/C16H14O6/c17-10-2-1-8-13-9-4-12(19)11(18)3-7(9)5-16(13,21)6-22-15(8)14(10)20/h1-4,13,17-21H,5-6H2/t13-,16+/m1/s1

>  <STRUCTURE_InChIKey>
WZUVPPKBWHMQCE-CJNGLKHVBR

>  <StudyType>
Carcinogenicity

>  <Endpoint>
TD50; Tumor Target Sites

>  <Species>
rat

>  <ActivityOutcome_CPDBAS_Mutagenicity>
inactive

>  <TD50_Rat_mg>
1000

>  <TD50_Rat_mmol>
3.31

>  <ActivityScore_CPDBAS_Rat>
20

>  <TargetSites_Rat_BothSexes>
hematopoietic system

>  <ActivityOutcome_CPDBAS_Rat>
active

>  <ActivityOutcome_CPDBAS_SingleCellCall>
active

>  <ChemicalPage_URL>
http://potency.berkeley.edu/chempages/HEMATOXYLIN.html

$$$$



 17 19  0  0  0  0  0  0  0  0999 V2000
    3.2392   -3.7118    0.0000 C   0  0  3  0  0  0  0  0  0  0  0  0
    3.1297   -2.2651    0.0000 C   0  0  3  0  0  0  0  0  0  0  0  0
    3.7637   -1.2104    0.0000 C   0  0  0  0  0  0  0  0  0  0  0  0
    4.1845   -4.2479    0.0000 C   0  0  0  0  0  0  0  0  0  0  0  0
    4.2248   -2.9337    0.0000 C   0  0  0  0  0  0  0  0  0  0  0  0
    1.9481   -4.1787    0.0000 C   0  0  3  0  0  0  0  0  0  0  0  0
    1.9885   -2.8646    0.0000 C   0  0  3  0  0  0  0  0  0  0  0  0
    0.7666   -2.4438    0.0000 C   0  0  0  0  0  0  0  0  0  0  0  0
    0.0000   -3.4582    0.0000 C   0  0  0  0  0  0  0  0  0  0  0  0
    0.6974   -4.5418    0.0000 C   0  0  3  0  0  0  0  0  0  0  0  0
    2.3747   -4.8358    0.0000 Cl  0  0  0  0  0  0  0  0  0  0  0  0
    2.2536   -1.3141    0.0000 Cl  0  0  0  0  0  0  0  0  0  0  0  0
    4.6859   -0.4957    0.0000 Cl  0  0  0  0  0  0  0  0  0  0  0  0
    3.6081    0.0000    0.0000 Cl  0  0  0  0  0  0  0  0  0  0  0  0
    4.4669   -5.3026    0.0000 Cl  0  0  0  0  0  0  0  0  0  0  0  0
    5.3372   -2.5476    0.0000 Cl  0  0  0  0  0  0  0  0  0  0  0  0
    0.2536   -5.7637    0.0000 Cl  0  0  0  0  0  0  0  0  0  0  0  0
  1  3  1  0  0  0  0
  1  4  1  0  0  0  0
  1  6  1  0  0  0  0
  1 11  1  0  0  0  0
  2  3  1  0  0  0  0
  2 12  1  0  0  0  0
  2  7  1  0  0  0  0
  2  5  1  0  0  0  0
  3 13  1  0  0  0  0
  3 14  1  0  0  0  0
  4  5  2  0  0  0  0
  4 15  1  0  0  0  0
  5 16  1  0  0  0  0
  6  7  1  0  0  0  0
  6 10  1  0  0  0  0
  7  8  1  0  0  0  0
  8  9  2  0  0  0  0
  9 10  1  0  0  0  0
 10 17  1  0  0  0  0
M  END
>  <DSSTox_RID>
20679

>  <DSSTox_CID>
679

>  <DSSTox_Generic_SID>
20679

>  <DSSTox_FileID>
710_CPDBAS_v5d

>  <STRUCTURE_Formula>
C10H5Cl7

>  <STRUCTURE_MolecularWeight>
373.3177

>  <STRUCTURE_ChemicalType>
defined organic

>  <STRUCTURE_TestedForm_DefinedOrganic>
parent

>  <STRUCTURE_Shown>
tested chemical

>  <TestSubstance_ChemicalName>
Heptachlor

>  <TestSubstance_CASRN>
76-44-8

>  <TestSubstance_Description>
single chemical compound

>  <ChemicalNote>
stereochem

>  <STRUCTURE_ChemicalName_IUPAC>
1,4,5,6,7,8,8-heptachloro-3a,4,7,7a-tetrahydro-1H-4,7-methanoindene

>  <STRUCTURE_SMILES>
ClC1/C=C\C2C1C3(Cl)C(/Cl)=C(/Cl)C2(Cl)C3(Cl)Cl

>  <STRUCTURE_Parent_SMILES>
ClC1/C=C\C2C1C3(Cl)C(/Cl)=C(/Cl)C2(Cl)C3(Cl)Cl

>  <STRUCTURE_InChI>
InChI=1/C10H5Cl7/c11-4-2-1-3-5(4)9(15)7(13)6(12)8(3,14)10(9,16)17/h1-5H

>  <STRUCTURE_InChIKey>
FRCCEHPWNOQAEU-UHFFFAOYAM

>  <StudyType>
Carcinogenicity

>  <Endpoint>
TD50; Tumor Target Sites

>  <Species>
rat; mouse

>  <ActivityOutcome_CPDBAS_Mutagenicity>
inactive

>  <ActivityScore_CPDBAS_Rat>
0

>  <TD50_Rat_Note>
no positive results

>  <TargetSites_Rat_Male>
no positive results

>  <TargetSites_Rat_Female>
no positive results

>  <ActivityOutcome_CPDBAS_Rat>
inactive

>  <TD50_Mouse_mg>
1.21

>  <TD50_Mouse_mmol>
0.00324

>  <ActivityScore_CPDBAS_Mouse>
56

>  <TD50_Mouse_Note>
TD50 is harmonic mean of more than one positive test

>  <TargetSites_Mouse_Male>
liver

>  <TargetSites_Mouse_Female>
liver

>  <ActivityOutcome_CPDBAS_Mouse>
active

>  <ActivityOutcome_CPDBAS_SingleCellCall>
active

>  <ActivityOutcome_CPDBAS_MultiCellCall>
active

>  <ActivityOutcome_CPDBAS_MultiCellCall_Details>
multisex active

>  <NTP_TechnicalReport>
TR 9

>  <ChemicalPage_URL>
http://potency.berkeley.edu/chempages/HEPTACHLOR.html

$$$$



  8  8  0  0  0  0  0  0  0  0999 V2000
    3.2111   -2.2703    0.0000 C   0  0  0  0  0  0  0  0  0  0  0  0
    2.2703   -3.2111    0.0000 C   0  0  0  0  0  0  0  0  0  0  0  0
    0.9409   -3.2111    0.0000 C   0  0  0  0  0  0  0  0  0  0  0  0
    0.0000   -2.2703    0.0000 C   0  0  0  0  0  0  0  0  0  0  0  0
    0.0000   -0.9409    0.0000 N   0  0  0  0  0  0  0  0  0  0  0  0
    0.9409    0.0000    0.0000 C   0  0  0  0  0  0  0  0  0  0  0  0
    2.2703    0.0000    0.0000 C   0  0  0  0  0  0  0  0  0  0  0  0
    3.2111   -0.9409    0.0000 C   0  0  0  0  0  0  0  0  0  0  0  0
  1  2  1  0  0  0  0
  1  8  1  0  0  0  0
  2  3  1  0  0  0  0
  3  4  1  0  0  0  0
  4  5  1  0  0  0  0
  5  6  1  0  0  0  0
  6  7  1  0  0  0  0
  7  8  1  0  0  0  0
M  END
>  <DSSTox_RID>
20680

>  <DSSTox_CID>
680

>  <DSSTox_Generic_SID>
20680

>  <DSSTox_FileID>
711_CPDBAS_v5d

>  <STRUCTURE_Formula>
C7H15N

>  <STRUCTURE_MolecularWeight>
113.2022

>  <STRUCTURE_ChemicalType>
defined organic

>  <STRUCTURE_TestedForm_DefinedOrganic>
parent

>  <STRUCTURE_Shown>
tested chemical

>  <TestSubstance_ChemicalName>
Heptamethyleneimine

>  <TestSubstance_CASRN>
1121-92-2

>  <TestSubstance_Description>
single chemical compound

>  <STRUCTURE_ChemicalName_IUPAC>
azocane

>  <STRUCTURE_SMILES>
C1CCCNCCC1

>  <STRUCTURE_Parent_SMILES>
C1CCCNCCC1

>  <STRUCTURE_InChI>
InChI=1/C7H15N/c1-2-4-6-8-7-5-3-1/h8H,1-7H2

>  <STRUCTURE_InChIKey>
QXNDZONIWRINJR-UHFFFAOYAE

>  <StudyType>
Carcinogenicity

>  <Endpoint>
TD50; Tumor Target Sites

>  <Species>
rat

>  <ActivityScore_CPDBAS_Rat>
0

>  <TD50_Rat_Note>
no positive results

>  <TargetSites_Rat_Male>
no positive results

>  <TargetSites_Rat_Female>
no positive results

>  <ActivityOutcome_CPDBAS_Rat>
inactive

>  <ActivityOutcome_CPDBAS_SingleCellCall>
inactive

>  <ActivityOutcome_CPDBAS_MultiCellCall>
inactive

>  <ActivityOutcome_CPDBAS_MultiCellCall_Details>
multisex inactive

>  <ChemicalPage_URL>
http://potency.berkeley.edu/chempages/HEPTAMETHYLENEIMINE.html

$$$$



  8  7  0  0  0  0  0  0  0  0999 V2000
    8.0744    0.0000    0.0000 C   0  0  0  0  0  0  0  0  0  0  0  0
    6.9197   -0.6621    0.0000 C   0  0  0  0  0  0  0  0  0  0  0  0
    5.7651    0.0000    0.0000 C   0  0  0  0  0  0  0  0  0  0  0  0
    4.6105   -0.6621    0.0000 C   0  0  0  0  0  0  0  0  0  0  0  0
    3.4639    0.0000    0.0000 C   0  0  0  0  0  0  0  0  0  0  0  0
    2.3093   -0.6621    0.0000 C   0  0  0  0  0  0  0  0  0  0  0  0
    1.1546    0.0000    0.0000 C   0  0  0  0  0  0  0  0  0  0  0  0
    0.0000   -0.6621    0.0000 N   0  0  0  0  0  0  0  0  0  0  0  0
  1  2  1  0  0  0  0
  2  3  1  0  0  0  0
  3  4  1  0  0  0  0
  4  5  1  0  0  0  0
  5  6  1  0  0  0  0
  6  7  1  0  0  0  0
  7  8  1  0  0  0  0
M  END
>  <DSSTox_RID>
20681

>  <DSSTox_CID>
681

>  <DSSTox_Generic_SID>
20681

>  <DSSTox_FileID>
712_CPDBAS_v5d

>  <STRUCTURE_Formula>
C7H17N

>  <STRUCTURE_MolecularWeight>
115.2166

>  <STRUCTURE_ChemicalType>
defined organic

>  <STRUCTURE_TestedForm_DefinedOrganic>
parent

>  <STRUCTURE_Shown>
tested chemical

>  <TestSubstance_ChemicalName>
Heptylamine

>  <TestSubstance_CASRN>
111-68-2

>  <TestSubstance_Description>
single chemical compound

>  <STRUCTURE_ChemicalName_IUPAC>
heptan-1-amine

>  <STRUCTURE_SMILES>
CCCCCCCN

>  <STRUCTURE_Parent_SMILES>
CCCCCCCN

>  <STRUCTURE_InChI>
InChI=1/C7H17N/c1-2-3-4-5-6-7-8/h2-8H2,1H3

>  <STRUCTURE_InChIKey>
WJYIASZWHGOTOU-UHFFFAOYAD

>  <StudyType>
Carcinogenicity

>  <Endpoint>
TD50; Tumor Target Sites

>  <Species>
rat

>  <ActivityScore_CPDBAS_Rat>
0

>  <TD50_Rat_Note>
no positive results

>  <TargetSites_Rat_Male>
no positive results

>  <ActivityOutcome_CPDBAS_Rat>
inactive

>  <ActivityOutcome_CPDBAS_SingleCellCall>
inactive

>  <ChemicalPage_URL>
http://potency.berkeley.edu/chempages/HEPTYLAMINE.html

$$$$



 12 12  0  0  0  0  0  0  0  0999 V2000
    0.0000   -2.3036    0.0000 Cl  0  0  0  0  0  0  0  0  0  0  0  0
    1.3300   -2.3036    0.0000 C   0  0  0  0  0  0  0  0  0  0  0  0
    1.9950   -1.1491    0.0000 C   0  0  0  0  0  0  0  0  0  0  0  0
    3.3250   -1.1491    0.0000 C   0  0  0  0  0  0  0  0  0  0  0  0
    3.9901   -2.3036    0.0000 C   0  0  0  0  0  0  0  0  0  0  0  0
    3.3250   -3.4581    0.0000 C   0  0  0  0  0  0  0  0  0  0  0  0
    1.9950   -3.4581    0.0000 C   0  0  0  0  0  0  0  0  0  0  0  0
    1.3300   -4.6072    0.0000 Cl  0  0  0  0  0  0  0  0  0  0  0  0
    3.9901   -4.6072    0.0000 Cl  0  0  0  0  0  0  0  0  0  0  0  0
    5.3201   -2.3036    0.0000 Cl  0  0  0  0  0  0  0  0  0  0  0  0
    3.9901    0.0000    0.0000 Cl  0  0  0  0  0  0  0  0  0  0  0  0
    1.3300    0.0000    0.0000 Cl  0  0  0  0  0  0  0  0  0  0  0  0
  1  2  1  0  0  0  0
  2  3  2  0  0  0  0
  2  7  1  0  0  0  0
  3  4  1  0  0  0  0
  3 12  1  0  0  0  0
  4  5  2  0  0  0  0
  4 11  1  0  0  0  0
  5  6  1  0  0  0  0
  5 10  1  0  0  0  0
  6  7  2  0  0  0  0
  6  9  1  0  0  0  0
  7  8  1  0  0  0  0
M  END
>  <DSSTox_RID>
20682

>  <DSSTox_CID>
682

>  <DSSTox_Generic_SID>
20682

>  <DSSTox_FileID>
713_CPDBAS_v5d

>  <STRUCTURE_Formula>
C6Cl6

>  <STRUCTURE_MolecularWeight>
284.7822

>  <STRUCTURE_ChemicalType>
defined organic

>  <STRUCTURE_TestedForm_DefinedOrganic>
parent

>  <STRUCTURE_Shown>
tested chemical

>  <TestSubstance_ChemicalName>
Hexachlorobenzene

>  <TestSubstance_CASRN>
118-74-1

>  <TestSubstance_Description>
single chemical compound

>  <STRUCTURE_ChemicalName_IUPAC>
hexachlorobenzene

>  <STRUCTURE_SMILES>
ClC1=C(C(=C(C(=C1Cl)Cl)Cl)Cl)Cl

>  <STRUCTURE_Parent_SMILES>
ClC1=C(C(=C(C(=C1Cl)Cl)Cl)Cl)Cl

>  <STRUCTURE_InChI>
InChI=1/C6Cl6/c7-1-2(8)4(10)6(12)5(11)3(1)9

>  <STRUCTURE_InChIKey>
CKAPSXZOOQJIBF-UHFFFAOYAV

>  <StudyType>
Carcinogenicity

>  <Endpoint>
TD50; Tumor Target Sites

>  <Species>
rat; mouse; hamster

>  <ActivityOutcome_CPDBAS_Mutagenicity>
inactive

>  <TD50_Rat_mg>
3.86

>  <TD50_Rat_mmol>
0.0136

>  <ActivityScore_CPDBAS_Rat>
45

>  <TD50_Rat_Note>
TD50 is harmonic mean of more than one positive test; harmonic mean of TD50 includes a value for upper 99% confidence limit from study with 100% tumor incidence but no lifetable; greater than ten-fold variation among TD50 values for positive results

>  <TargetSites_Rat_Male>
liver

>  <TargetSites_Rat_Female>
liver

>  <ActivityOutcome_CPDBAS_Rat>
active

>  <TD50_Mouse_mg>
65.1

>  <TD50_Mouse_mmol>
0.229

>  <ActivityScore_CPDBAS_Mouse>
35

>  <TD50_Mouse_Note>
TD50 is harmonic mean of more than one positive test

>  <TargetSites_Mouse_Male>
liver

>  <TargetSites_Mouse_Female>
liver

>  <ActivityOutcome_CPDBAS_Mouse>
active

>  <TD50_Hamster_mg>
4.96

>  <TD50_Hamster_mmol>
0.0174

>  <ActivityScore_CPDBAS_Hamster>
68

>  <TD50_Hamster_Note>
TD50 is harmonic mean of more than one positive test

>  <TargetSites_Hamster_Male>
liver; thyroid gland; vascular system

>  <TargetSites_Hamster_Female>
liver; vascular system

>  <ActivityOutcome_CPDBAS_Hamster>
active

>  <ActivityOutcome_CPDBAS_SingleCellCall>
active

>  <ActivityOutcome_CPDBAS_MultiCellCall>
active

>  <ActivityOutcome_CPDBAS_MultiCellCall_Details>
multisite active; multisex active; multispecies active

>  <ChemicalPage_URL>
http://potency.berkeley.edu/chempages/HEXACHLOROBENZENE.html

$$$$



 10  9  0  0  0  0  0  0  0  0999 V2000
    2.3047    0.0000    0.0000 Cl  0  0  0  0  0  0  0  0  0  0  0  0
    2.3047   -1.3309    0.0000 C   0  0  0  0  0  0  0  0  0  0  0  0
    1.1523   -1.9935    0.0000 C   0  0  0  0  0  0  0  0  0  0  0  0
    1.1523   -3.3245    0.0000 Cl  0  0  0  0  0  0  0  0  0  0  0  0
    0.0000   -1.3309    0.0000 Cl  0  0  0  0  0  0  0  0  0  0  0  0
    3.4570   -1.9935    0.0000 C   0  0  0  0  0  0  0  0  0  0  0  0
    4.6093   -1.3309    0.0000 C   0  0  0  0  0  0  0  0  0  0  0  0
    5.7617   -1.9935    0.0000 Cl  0  0  0  0  0  0  0  0  0  0  0  0
    4.6093    0.0000    0.0000 Cl  0  0  0  0  0  0  0  0  0  0  0  0
    3.4570   -3.3245    0.0000 Cl  0  0  0  0  0  0  0  0  0  0  0  0
  1  2  1  0  0  0  0
  2  3  2  0  0  0  0
  2  6  1  0  0  0  0
  3  4  1  0  0  0  0
  3  5  1  0  0  0  0
  6  7  2  0  0  0  0
  6 10  1  0  0  0  0
  7  8  1  0  0  0  0
  7  9  1  0  0  0  0
M  END
>  <DSSTox_RID>
20683

>  <DSSTox_CID>
683

>  <DSSTox_Generic_SID>
20683

>  <DSSTox_FileID>
714_CPDBAS_v5d

>  <STRUCTURE_Formula>
C4Cl6

>  <STRUCTURE_MolecularWeight>
260.7608

>  <STRUCTURE_ChemicalType>
defined organic

>  <STRUCTURE_TestedForm_DefinedOrganic>
parent

>  <STRUCTURE_Shown>
tested chemical

>  <TestSubstance_ChemicalName>
Hexachlorobutadiene

>  <TestSubstance_CASRN>
87-68-3

>  <TestSubstance_Description>
single chemical compound

>  <STRUCTURE_ChemicalName_IUPAC>
1,1,2,3,4,4-hexachlorobuta-1,3-diene

>  <STRUCTURE_SMILES>
Cl\C(Cl)=C(Cl)/C(Cl)=C(Cl)\Cl

>  <STRUCTURE_Parent_SMILES>
Cl\C(Cl)=C(Cl)/C(Cl)=C(Cl)\Cl

>  <STRUCTURE_InChI>
InChI=1/C4Cl6/c5-1(3(7)8)2(6)4(9)10

>  <STRUCTURE_InChIKey>
RWNKSTSCBHKHTB-UHFFFAOYAT

>  <StudyType>
Carcinogenicity

>  <Endpoint>
TD50; Tumor Target Sites

>  <Species>
rat

>  <ActivityOutcome_CPDBAS_Mutagenicity>
inactive

>  <TD50_Rat_mg>
65.8

>  <TD50_Rat_mmol>
0.252

>  <ActivityScore_CPDBAS_Rat>
32

>  <TD50_Rat_Note>
TD50 is harmonic mean of more than one positive test

>  <TargetSites_Rat_Male>
kidney

>  <TargetSites_Rat_Female>
kidney

>  <ActivityOutcome_CPDBAS_Rat>
active

>  <ActivityOutcome_CPDBAS_SingleCellCall>
active

>  <ActivityOutcome_CPDBAS_MultiCellCall>
active

>  <ActivityOutcome_CPDBAS_MultiCellCall_Details>
multisex active

>  <ChemicalPage_URL>
http://potency.berkeley.edu/chempages/HEXACHLOROBUTADIENE.html

$$$$



 12 12  0  0  1  0  0  0  0  0999 V2000
    3.6345    3.5001    0.0000 C   0  0  1  0  0  0  0  0  0  0  0  0
    3.6345    2.1001    0.0000 C   0  0  1  0  0  0  0  0  0  0  0  0
    2.4305    4.2002    0.0000 C   0  0  1  0  0  0  0  0  0  0  0  0
    2.4305    1.4001    0.0000 C   0  0  2  0  0  0  0  0  0  0  0  0
    1.2208    3.5001    0.0000 C   0  0  2  0  0  0  0  0  0  0  0  0
    1.2208    2.1001    0.0000 C   0  0  1  0  0  0  0  0  0  0  0  0
    0.0000    4.2002    0.0000 Cl  0  0  0  0  0  0  0  0  0  0  0  0
    2.4305    5.6002    0.0000 Cl  0  0  0  0  0  0  0  0  0  0  0  0
    4.8553    4.2002    0.0000 Cl  0  0  0  0  0  0  0  0  0  0  0  0
    4.8553    1.4001    0.0000 Cl  0  0  0  0  0  0  0  0  0  0  0  0
    2.4305    0.0000    0.0000 Cl  0  0  0  0  0  0  0  0  0  0  0  0
    0.0000    1.4001    0.0000 Cl  0  0  0  0  0  0  0  0  0  0  0  0
  1  2  1  0  0  0  0
  1  3  1  0  0  0  0
  1  9  1  1  0  0  0
  2  4  1  0  0  0  0
  2 10  1  6  0  0  0
  3  5  1  0  0  0  0
  3  8  1  1  0  0  0
  4  6  1  0  0  0  0
  4 11  1  1  0  0  0
  5  6  1  0  0  0  0
  5  7  1  6  0  0  0
  6 12  1  6  0  0  0
M  END
>  <DSSTox_RID>
20684

>  <DSSTox_CID>
684

>  <DSSTox_Generic_SID>
20684

>  <DSSTox_FileID>
715_CPDBAS_v5d

>  <STRUCTURE_Formula>
C6H6Cl6

>  <STRUCTURE_MolecularWeight>
290.8314

>  <STRUCTURE_ChemicalType>
defined organic

>  <STRUCTURE_TestedForm_DefinedOrganic>
parent

>  <STRUCTURE_Shown>
tested chemical

>  <TestSubstance_ChemicalName>
alpha-1,2,3,4,5,6-Hexachlorocyclohexane

>  <TestSubstance_CASRN>
319-84-6

>  <TestSubstance_Description>
single chemical compound

>  <ChemicalNote>
stereochem

>  <STRUCTURE_ChemicalName_IUPAC>
(1R,2R,3R,4R,5S,6S)-1,2,3,4,5,6-hexachlorocyclohexane

>  <STRUCTURE_SMILES>
Cl[C@@H]1[C@H](Cl)[C@@H](Cl)[C@@H](Cl)[C@H](Cl)[C@H]1Cl

>  <STRUCTURE_Parent_SMILES>
Cl[C@@H]1[C@H](Cl)[C@@H](Cl)[C@@H](Cl)[C@H](Cl)[C@H]1Cl

>  <STRUCTURE_InChI>
InChI=1/C6H6Cl6/c7-1-2(8)4(10)6(12)5(11)3(1)9/h1-6H/t1-,2-,3-,4-,5+,6+/m1/s1

>  <STRUCTURE_InChIKey>
JLYXXMFPNIAWKQ-SHFUYGGZBU

>  <StudyType>
Carcinogenicity

>  <Endpoint>
TD50; Tumor Target Sites

>  <Species>
rat; mouse

>  <TD50_Rat_mg>
11.2

>  <TD50_Rat_mmol>
0.0385

>  <ActivityScore_CPDBAS_Rat>
40

>  <TargetSites_Rat_Male>
liver

>  <ActivityOutcome_CPDBAS_Rat>
active

>  <TD50_Mouse_mg>
6.62

>  <TD50_Mouse_mmol>
0.0228

>  <ActivityScore_CPDBAS_Mouse>
47

>  <TD50_Mouse_Note>
TD50 value is overestimated as upper 99% confidence limit from study with 100% tumor incidence but no lifetable; harmonic mean of TD50 includes a value for upper 99% confidence limit from study with 100% tumor incidence but no lifetable

>  <TargetSites_Mouse_Male>
liver

>  <ActivityOutcome_CPDBAS_Mouse>
active

>  <ActivityOutcome_CPDBAS_SingleCellCall>
active

>  <ActivityOutcome_CPDBAS_MultiCellCall>
active

>  <ActivityOutcome_CPDBAS_MultiCellCall_Details>
multispecies active

>  <Note_CPDBAS>
same 2D structure beta-HCH [319-85-7]; gamma-HCH (Lindane) [58-89-9]; TD50_Mouse_Note added v5a

>  <ChemicalPage_URL>
http://potency.berkeley.edu/chempages/alpha-1,2,3,4,5,6-HEXACHLOROCYCLOHEXANE.html

$$$$



 12 12  0  0  1  0  0  0  0  0999 V2000
    1.2032    3.4439    0.0000 C   0  0  1  0  0  0  0  0  0  0  0  0
    1.2032    2.0752    0.0000 C   0  0  1  0  0  0  0  0  0  0  0  0
    2.3898    1.3688    0.0000 C   0  0  2  0  0  0  0  0  0  0  0  0
    3.5985    2.0752    0.0000 C   0  0  1  0  0  0  0  0  0  0  0  0
    3.5985    3.4439    0.0000 C   0  0  2  0  0  0  0  0  0  0  0  0
    2.3898    4.1504    0.0000 C   0  0  2  0  0  0  0  0  0  0  0  0
    0.0000    4.1670    0.0000 Cl  0  0  0  0  0  0  0  0  0  0  0  0
    4.8016    4.1670    0.0000 Cl  0  0  0  0  0  0  0  0  0  0  0  0
    0.0000    1.3523    0.0000 Cl  0  0  0  0  0  0  0  0  0  0  0  0
    2.3898    0.0000    0.0000 Cl  0  0  0  0  0  0  0  0  0  0  0  0
    4.8016    1.3523    0.0000 Cl  0  0  0  0  0  0  0  0  0  0  0  0
    2.3898    5.5191    0.0000 Cl  0  0  0  0  0  0  0  0  0  0  0  0
  1  2  1  0  0  0  0
  1  6  1  0  0  0  0
  1  7  1  6  0  0  0
  2  3  1  0  0  0  0
  2  9  1  1  0  0  0
  3  4  1  0  0  0  0
  3 10  1  6  0  0  0
  4  5  1  0  0  0  0
  4 11  1  1  0  0  0
  5  6  1  0  0  0  0
  5  8  1  6  0  0  0
  6 12  1  1  0  0  0
M  END
>  <DSSTox_RID>
20685

>  <DSSTox_CID>
685

>  <DSSTox_Generic_SID>
20685

>  <DSSTox_FileID>
716_CPDBAS_v5d

>  <STRUCTURE_Formula>
C6H6Cl6

>  <STRUCTURE_MolecularWeight>
290.8314

>  <STRUCTURE_ChemicalType>
defined organic

>  <STRUCTURE_TestedForm_DefinedOrganic>
parent

>  <STRUCTURE_Shown>
tested chemical

>  <TestSubstance_ChemicalName>
beta-1,2,3,4,5,6-Hexachlorocyclohexane

>  <TestSubstance_CASRN>
319-85-7

>  <TestSubstance_Description>
single chemical compound

>  <ChemicalNote>
stereochem

>  <STRUCTURE_ChemicalName_IUPAC>
(1r,2r,3r,4r,5r,6r)-1,2,3,4,5,6-hexachlorocyclohexane

>  <STRUCTURE_SMILES>
Cl[C@H]1[C@H](Cl)[C@@H](Cl)[C@H](Cl)[C@@H](Cl)[C@@H]1Cl

>  <STRUCTURE_Parent_SMILES>
Cl[C@H]1[C@H](Cl)[C@@H](Cl)[C@H](Cl)[C@@H](Cl)[C@@H]1Cl

>  <STRUCTURE_InChI>
InChI=1/C6H6Cl6/c7-1-2(8)4(10)6(12)5(11)3(1)9/h1-6H/t1-,2-,3+,4+,5-,6-

>  <STRUCTURE_InChIKey>
JLYXXMFPNIAWKQ-CDRYSYESBR

>  <StudyType>
Carcinogenicity

>  <Endpoint>
TD50; Tumor Target Sites

>  <Species>
mouse

>  <ActivityOutcome_CPDBAS_Mutagenicity>
inactive

>  <TD50_Mouse_mg>
27.8

>  <TD50_Mouse_mmol>
0.0956

>  <ActivityScore_CPDBAS_Mouse>
40

>  <TD50_Mouse_Note>
TD50 is harmonic mean of more than one positive test

>  <TargetSites_Mouse_Male>
liver

>  <TargetSites_Mouse_Female>
liver

>  <ActivityOutcome_CPDBAS_Mouse>
active

>  <ActivityOutcome_CPDBAS_SingleCellCall>
active

>  <ActivityOutcome_CPDBAS_MultiCellCall>
active

>  <ActivityOutcome_CPDBAS_MultiCellCall_Details>
multisex active

>  <Note_CPDBAS>
same 2D structure alpha-HCH [319-84-6]; gamma-HCH (Lindane) [58-89-9]

>  <ChemicalPage_URL>
http://potency.berkeley.edu/chempages/beta-1,2,3,4,5,6-HEXACHLOROCYCLOHEXANE.html

$$$$



 12 12  0  0  1  0  0  0  0  0999 V2000
    1.2383    2.1028    0.0000 C   0  0  1  0  0  0  0  0  0  0  0  0
    1.2383    3.4862    0.0000 C   0  0  1  0  0  0  0  0  0  0  0  0
    2.4487    1.4056    0.0000 C   0  0  1  0  0  0  0  0  0  0  0  0
    0.0000    1.3834    0.0000 Cl  0  0  0  0  0  0  0  0  0  0  0  0
    2.4487    4.1778    0.0000 C   0  0  2  0  0  0  0  0  0  0  0  0
    0.0000    4.2056    0.0000 Cl  0  0  0  0  0  0  0  0  0  0  0  0
    3.6311    2.1028    0.0000 C   0  0  2  0  0  0  0  0  0  0  0  0
    2.4487    0.0000    0.0000 Cl  0  0  0  0  0  0  0  0  0  0  0  0
    3.6311    3.4862    0.0000 C   0  0  2  0  0  0  0  0  0  0  0  0
    2.4487    5.5778    0.0000 Cl  0  0  0  0  0  0  0  0  0  0  0  0
    4.8694    1.3834    0.0000 Cl  0  0  0  0  0  0  0  0  0  0  0  0
    4.8694    4.2056    0.0000 Cl  0  0  0  0  0  0  0  0  0  0  0  0
  1  2  1  0  0  0  0
  1  3  1  0  0  0  0
  1  4  1  1  0  0  0
  2  5  1  0  0  0  0
  2  6  1  6  0  0  0
  3  7  1  0  0  0  0
  3  8  1  1  0  0  0
  5  9  1  0  0  0  0
  5 10  1  1  0  0  0
  7 11  1  6  0  0  0
  7  9  1  0  0  0  0
  9 12  1  1  0  0  0
M  END
>  <DSSTox_RID>
20686

>  <DSSTox_CID>
686

>  <DSSTox_Generic_SID>
20686

>  <DSSTox_FileID>
717_CPDBAS_v5d

>  <STRUCTURE_Formula>
C6H6Cl6

>  <STRUCTURE_MolecularWeight>
290.8298

>  <STRUCTURE_ChemicalType>
defined organic

>  <STRUCTURE_TestedForm_DefinedOrganic>
parent

>  <STRUCTURE_Shown>
tested chemical

>  <TestSubstance_ChemicalName>
gamma-1,2,3,4,5,6-Hexachlorocyclohexane

>  <TestSubstance_CASRN>
58-89-9

>  <TestSubstance_Description>
single chemical compound

>  <ChemicalNote>
lindane (gamma-HCH), stereochem

>  <STRUCTURE_ChemicalName_IUPAC>
(1r,2R,3S,4r,5R,6S)-1,2,3,4,5,6-hexachlorocyclohexane

>  <STRUCTURE_SMILES>
Cl[C@@H]1[C@@H](Cl)[C@H](Cl)[C@H](Cl)[C@@H](Cl)[C@@H]1Cl

>  <STRUCTURE_Parent_SMILES>
Cl[C@@H]1[C@@H](Cl)[C@H](Cl)[C@H](Cl)[C@@H](Cl)[C@@H]1Cl

>  <STRUCTURE_InChI>
InChI=1/C6H6Cl6/c7-1-2(8)4(10)6(12)5(11)3(1)9/h1-6H/t1-,2-,3-,4+,5+,6+

>  <STRUCTURE_InChIKey>
JLYXXMFPNIAWKQ-GNIYUCBRBU

>  <StudyType>
Carcinogenicity

>  <Endpoint>
TD50; Tumor Target Sites

>  <Species>
rat; mouse

>  <ActivityOutcome_CPDBAS_Mutagenicity>
inactive

>  <ActivityScore_CPDBAS_Rat>
0

>  <TD50_Rat_Note>
no positive results

>  <TargetSites_Rat_Male>
no positive results

>  <TargetSites_Rat_Female>
no positive results

>  <ActivityOutcome_CPDBAS_Rat>
inactive

>  <TD50_Mouse_mg>
30.7

>  <TD50_Mouse_mmol>
0.106

>  <ActivityScore_CPDBAS_Mouse>
39

>  <TD50_Mouse_Note>
TD50 is harmonic mean of more than one positive test

>  <TargetSites_Mouse_Male>
liver

>  <TargetSites_Mouse_Female>
liver; lung

>  <ActivityOutcome_CPDBAS_Mouse>
active

>  <ActivityOutcome_CPDBAS_SingleCellCall>
active

>  <ActivityOutcome_CPDBAS_MultiCellCall>
active

>  <ActivityOutcome_CPDBAS_MultiCellCall_Details>
multisite active; multisex active

>  <Note_CPDBAS>
same 2D structure alpha-HCH [319-84-6]; beta-HCH [319-85-7]

>  <NTP_TechnicalReport>
TR 14; final call in CPDB differs due to additional data

>  <ChemicalPage_URL>
http://potency.berkeley.edu/chempages/gamma-1,2,3,4,5,6-HEXACHLOROCYCLOHEXANE.html

$$$$



 11 11  0  0  0  0  0  0  0  0999 V2000
    3.4265   -0.1676    0.0000 Cl  0  0  0  0  0  0  0  0  0  0  0  0
    3.2868   -1.4898    0.0000 C   0  0  0  0  0  0  0  0  0  0  0  0
    3.4265   -2.8119    0.0000 C   0  0  0  0  0  0  0  0  0  0  0  0
    2.2114   -3.3566    0.0000 C   0  0  0  0  0  0  0  0  0  0  0  0
    1.3222   -2.3650    0.0000 C   0  0  0  0  0  0  0  0  0  0  0  0
    1.9879   -1.2151    0.0000 C   0  0  0  0  0  0  0  0  0  0  0  0
    1.4479    0.0000    0.0000 Cl  0  0  0  0  0  0  0  0  0  0  0  0
    0.0000   -2.5047    0.0000 Cl  0  0  0  0  0  0  0  0  0  0  0  0
    1.9367   -4.6555    0.0000 Cl  0  0  0  0  0  0  0  0  0  0  0  0
    4.5810   -3.4777    0.0000 Cl  0  0  0  0  0  0  0  0  0  0  0  0
    4.6183   -1.4898    0.0000 Cl  0  0  0  0  0  0  0  0  0  0  0  0
  1  2  1  0  0  0  0
  2  3  1  0  0  0  0
  2  6  1  0  0  0  0
  2 11  1  0  0  0  0
  3  4  2  0  0  0  0
  3 10  1  0  0  0  0
  4  5  1  0  0  0  0
  4  9  1  0  0  0  0
  5  6  2  0  0  0  0
  5  8  1  0  0  0  0
  6  7  1  0  0  0  0
M  END
>  <DSSTox_RID>
20688

>  <DSSTox_CID>
688

>  <DSSTox_Generic_SID>
20688

>  <DSSTox_FileID>
719_CPDBAS_v5d

>  <STRUCTURE_Formula>
C5Cl6

>  <STRUCTURE_MolecularWeight>
272.7715

>  <STRUCTURE_ChemicalType>
defined organic

>  <STRUCTURE_TestedForm_DefinedOrganic>
parent

>  <STRUCTURE_Shown>
tested chemical

>  <TestSubstance_ChemicalName>
Hexachlorocyclopentadiene

>  <TestSubstance_CASRN>
77-47-4

>  <TestSubstance_Description>
single chemical compound

>  <STRUCTURE_ChemicalName_IUPAC>
1,2,3,4,5,5-hexachlorocyclopenta-1,3-diene

>  <STRUCTURE_SMILES>
ClC1(C(=C(C(=C1Cl)Cl)Cl)Cl)Cl

>  <STRUCTURE_Parent_SMILES>
ClC1(C(=C(C(=C1Cl)Cl)Cl)Cl)Cl

>  <STRUCTURE_InChI>
InChI=1/C5Cl6/c6-1-2(7)4(9)5(10,11)3(1)8

>  <STRUCTURE_InChIKey>
VUNCWTMEJYMOOR-UHFFFAOYAM

>  <StudyType>
Carcinogenicity

>  <Endpoint>
TD50; Tumor Target Sites

>  <Species>
rat; mouse

>  <ActivityOutcome_CPDBAS_Mutagenicity>
inactive

>  <ActivityScore_CPDBAS_Rat>
0

>  <TD50_Rat_Note>
no positive results

>  <TargetSites_Rat_Male>
no positive results

>  <TargetSites_Rat_Female>
no positive results

>  <ActivityOutcome_CPDBAS_Rat>
inactive

>  <ActivityScore_CPDBAS_Mouse>
0

>  <TD50_Mouse_Note>
no positive results

>  <TargetSites_Mouse_Male>
no positive results

>  <TargetSites_Mouse_Female>
no positive results

>  <ActivityOutcome_CPDBAS_Mouse>
inactive

>  <ActivityOutcome_CPDBAS_SingleCellCall>
inactive

>  <ActivityOutcome_CPDBAS_MultiCellCall>
inactive

>  <ActivityOutcome_CPDBAS_MultiCellCall_Details>
multisex inactive; multispecies inactive

>  <NTP_TechnicalReport>
TR 437

>  <ChemicalPage_URL>
http://potency.berkeley.edu/chempages/HEXACHLOROCYCLOPENTADIENE.html

$$$$



  8  7  0  0  0  0  0  0  0  0999 V2000
    0.0000   -1.3283    0.0000 Cl  0  0  0  0  0  0  0  0  0  0  0  0
    1.3283   -1.3283    0.0000 C   0  0  0  0  0  0  0  0  0  0  0  0
    1.3283   -2.6606    0.0000 C   0  0  0  0  0  0  0  0  0  0  0  0
    2.6606   -2.6606    0.0000 Cl  0  0  0  0  0  0  0  0  0  0  0  0
    1.3283   -3.9889    0.0000 Cl  0  0  0  0  0  0  0  0  0  0  0  0
    0.0000   -2.6606    0.0000 Cl  0  0  0  0  0  0  0  0  0  0  0  0
    1.3283    0.0000    0.0000 Cl  0  0  0  0  0  0  0  0  0  0  0  0
    2.6606   -1.3283    0.0000 Cl  0  0  0  0  0  0  0  0  0  0  0  0
  1  2  1  0  0  0  0
  2  3  1  0  0  0  0
  2  7  1  0  0  0  0
  2  8  1  0  0  0  0
  3  4  1  0  0  0  0
  3  5  1  0  0  0  0
  3  6  1  0  0  0  0
M  END
>  <DSSTox_RID>
20689

>  <DSSTox_CID>
689

>  <DSSTox_Generic_SID>
20689

>  <DSSTox_FileID>
720_CPDBAS_v5d

>  <STRUCTURE_Formula>
C2Cl6

>  <STRUCTURE_MolecularWeight>
236.7394

>  <STRUCTURE_ChemicalType>
defined organic

>  <STRUCTURE_TestedForm_DefinedOrganic>
parent

>  <STRUCTURE_Shown>
tested chemical

>  <TestSubstance_ChemicalName>
Hexachloroethane

>  <TestSubstance_CASRN>
67-72-1

>  <TestSubstance_Description>
single chemical compound

>  <STRUCTURE_ChemicalName_IUPAC>
hexachloroethane

>  <STRUCTURE_SMILES>
ClC(C(Cl)(Cl)Cl)(Cl)Cl

>  <STRUCTURE_Parent_SMILES>
ClC(C(Cl)(Cl)Cl)(Cl)Cl

>  <STRUCTURE_InChI>
InChI=1/C2Cl6/c3-1(4,5)2(6,7)8

>  <STRUCTURE_InChIKey>
VHHHONWQHHHLTI-UHFFFAOYAD

>  <StudyType>
Carcinogenicity

>  <Endpoint>
TD50; Tumor Target Sites

>  <Species>
rat; mouse

>  <ActivityOutcome_CPDBAS_Mutagenicity>
inactive

>  <TD50_Rat_mg>
55.4

>  <TD50_Rat_mmol>
0.234

>  <ActivityScore_CPDBAS_Rat>
32

>  <TargetSites_Rat_Male>
kidney

>  <TargetSites_Rat_Female>
no positive results

>  <ActivityOutcome_CPDBAS_Rat>
active

>  <TD50_Mouse_mg>
338

>  <TD50_Mouse_mmol>
1.43

>  <ActivityScore_CPDBAS_Mouse>
26

>  <TD50_Mouse_Note>
TD50 is harmonic mean of more than one positive test

>  <TargetSites_Mouse_Male>
liver

>  <TargetSites_Mouse_Female>
liver

>  <ActivityOutcome_CPDBAS_Mouse>
active

>  <ActivityOutcome_CPDBAS_SingleCellCall>
active

>  <ActivityOutcome_CPDBAS_MultiCellCall>
active

>  <ActivityOutcome_CPDBAS_MultiCellCall_Details>
multisite active; multisex active; multispecies active

>  <NTP_TechnicalReport>
TR 361

>  <ChemicalPage_URL>
http://potency.berkeley.edu/chempages/HEXACHLOROETHANE.html

$$$$



 21 22  0  0  0  0  0  0  0  0999 V2000
    2.3028   -5.3074    0.0000 O   0  0  0  0  0  0  0  0  0  0  0  0
    2.3028   -3.9830    0.0000 C   0  0  0  0  0  0  0  0  0  0  0  0
    1.1465   -3.3208    0.0000 C   0  0  0  0  0  0  0  0  0  0  0  0
    1.1465   -1.9866    0.0000 C   0  0  0  0  0  0  0  0  0  0  0  0
    2.3028   -1.3244    0.0000 C   0  0  0  0  0  0  0  0  0  0  0  0
    3.4493   -1.9866    0.0000 C   0  0  0  0  0  0  0  0  0  0  0  0
    3.4493   -3.3208    0.0000 C   0  0  0  0  0  0  0  0  0  0  0  0
    4.9417   -4.1807    0.0000 C   0  0  0  0  0  0  0  0  0  0  0  0
    6.4341   -3.3208    0.0000 C   0  0  0  0  0  0  0  0  0  0  0  0
    6.4341   -1.9866    0.0000 C   0  0  0  0  0  0  0  0  0  0  0  0
    7.5805   -1.3244    0.0000 C   0  0  0  0  0  0  0  0  0  0  0  0
    8.7369   -1.9866    0.0000 C   0  0  0  0  0  0  0  0  0  0  0  0
    8.7369   -3.3208    0.0000 C   0  0  0  0  0  0  0  0  0  0  0  0
    7.5805   -3.9830    0.0000 C   0  0  0  0  0  0  0  0  0  0  0  0
    7.5805   -5.3074    0.0000 Cl  0  0  0  0  0  0  0  0  0  0  0  0
    9.8833   -3.9830    0.0000 Cl  0  0  0  0  0  0  0  0  0  0  0  0
    7.5805    0.0000    0.0000 Cl  0  0  0  0  0  0  0  0  0  0  0  0
    5.4655   -1.3936    0.0000 O   0  0  0  0  0  0  0  0  0  0  0  0
    4.1115   -1.5912    0.0000 Cl  0  0  0  0  0  0  0  0  0  0  0  0
    2.3028    0.0000    0.0000 Cl  0  0  0  0  0  0  0  0  0  0  0  0
    0.0000   -3.9830    0.0000 Cl  0  0  0  0  0  0  0  0  0  0  0  0
  1  2  1  0  0  0  0
  2  3  2  0  0  0  0
  2  7  1  0  0  0  0
  3  4  1  0  0  0  0
  3 21  1  0  0  0  0
  4  5  2  0  0  0  0
  5  6  1  0  0  0  0
  5 20  1  0  0  0  0
  6  7  2  0  0  0  0
  6 19  1  0  0  0  0
  7  8  1  0  0  0  0
  8  9  1  0  0  0  0
  9 10  2  0  0  0  0
  9 14  1  0  0  0  0
 10 11  1  0  0  0  0
 10 18  1  0  0  0  0
 11 12  2  0  0  0  0
 11 17  1  0  0  0  0
 12 13  1  0  0  0  0
 13 14  2  0  0  0  0
 13 16  1  0  0  0  0
 14 15  1  0  0  0  0
M  END
>  <DSSTox_RID>
20690

>  <DSSTox_CID>
690

>  <DSSTox_Generic_SID>
20690

>  <DSSTox_FileID>
721_CPDBAS_v5d

>  <STRUCTURE_Formula>
C13H6Cl6O2

>  <STRUCTURE_MolecularWeight>
406.9035

>  <STRUCTURE_ChemicalType>
defined organic

>  <STRUCTURE_TestedForm_DefinedOrganic>
parent

>  <STRUCTURE_Shown>
tested chemical

>  <TestSubstance_ChemicalName>
Hexachlorophene

>  <TestSubstance_CASRN>
70-30-4

>  <TestSubstance_Description>
single chemical compound

>  <STRUCTURE_ChemicalName_IUPAC>
2,2'-methanediylbis(3,4,6-trichlorophenol)

>  <STRUCTURE_SMILES>
OC1=C(C=C(C(=C1CC2=C(C(=CC(=C2Cl)Cl)Cl)O)Cl)Cl)Cl

>  <STRUCTURE_Parent_SMILES>
OC1=C(C=C(C(=C1CC2=C(C(=CC(=C2Cl)Cl)Cl)O)Cl)Cl)Cl

>  <STRUCTURE_InChI>
InChI=1/C13H6Cl6O2/c14-6-2-8(16)12(20)4(10(6)18)1-5-11(19)7(15)3-9(17)13(5)21/h2-3,20-21H,1H2

>  <STRUCTURE_InChIKey>
ACGUYXCXAPNIKK-UHFFFAOYAL

>  <StudyType>
Carcinogenicity

>  <Endpoint>
TD50; Tumor Target Sites

>  <Species>
rat; mouse

>  <ActivityOutcome_CPDBAS_Mutagenicity>
inactive

>  <ActivityScore_CPDBAS_Rat>
0

>  <TD50_Rat_Note>
no positive results

>  <TargetSites_Rat_Male>
no positive results

>  <TargetSites_Rat_Female>
no positive results

>  <ActivityOutcome_CPDBAS_Rat>
inactive

>  <ActivityScore_CPDBAS_Mouse>
0

>  <TD50_Mouse_Note>
no positive results

>  <TargetSites_Mouse_Male>
no positive results

>  <TargetSites_Mouse_Female>
no positive results

>  <ActivityOutcome_CPDBAS_Mouse>
inactive

>  <ActivityOutcome_CPDBAS_SingleCellCall>
inactive

>  <ActivityOutcome_CPDBAS_MultiCellCall>
inactive

>  <ActivityOutcome_CPDBAS_MultiCellCall_Details>
multisex inactive; multispecies inactive

>  <NTP_TechnicalReport>
TR 40; additional results included in CPDB

>  <ChemicalPage_URL>
http://potency.berkeley.edu/chempages/HEXACHLOROPHENE.html

$$$$



 16 18  0  0  0  0  0  0  0  0999 V2000
    3.0331   -6.3349    0.0000 C   0  0  3  0  0  0  0  0  0  0  0  0
    2.6108   -5.3943    0.0000 C   0  0  3  0  0  0  0  0  0  0  0  0
    1.2030   -5.0807    0.0000 C   0  0  3  0  0  0  0  0  0  0  0  0
    1.1710   -3.8457    0.0000 C   0  0  3  0  0  0  0  0  0  0  0  0
    2.1244   -4.5496    0.0000 C   0  0  0  0  0  0  0  0  0  0  0  0
    2.2204   -5.8870    0.0000 C   0  0  3  0  0  0  0  0  0  0  0  0
    0.4415   -6.3989    0.0000 C   0  0  0  0  0  0  0  0  0  0  0  0
    2.2140   -3.1739    0.0000 N   0  0  0  0  0  0  0  0  0  0  0  0
    2.2140   -1.9005    0.0000 C   0  0  0  0  0  0  0  0  0  0  0  0
    1.1070   -1.2606    0.0000 N   0  0  0  0  0  0  0  0  0  0  0  0
    0.0000   -1.9005    0.0000 C   0  0  0  0  0  0  0  0  0  0  0  0
    1.1070    0.0000    0.0000 C   0  0  0  0  0  0  0  0  0  0  0  0
    3.3082   -1.2670    0.0000 O   0  0  0  0  0  0  0  0  0  0  0  0
    3.5834   -4.6968    0.0000 C   0  0  0  0  0  0  0  0  0  0  0  0
    5.2983   -5.4007    0.0000 C   0  0  0  0  0  0  0  0  0  0  0  0
    3.6154   -5.4327    0.0000 C   0  0  0  0  0  0  0  0  0  0  0  0
  1  2  1  0  0  0  0
  1  6  1  0  0  0  0
  1 16  1  0  0  0  0
  2  3  1  0  0  0  0
  2 14  1  0  0  0  0
  3  4  1  0  0  0  0
  3  7  1  0  0  0  0
  4  5  1  0  0  0  0
  4  8  1  0  0  0  0
  5  6  1  0  0  0  0
  6  7  1  0  0  0  0
  8  9  1  0  0  0  0
  9 10  1  0  0  0  0
  9 13  2  0  0  0  0
 10 11  1  0  0  0  0
 10 12  1  0  0  0  0
 14 15  1  0  0  0  0
 15 16  1  0  0  0  0
M  END
>  <DSSTox_RID>
20691

>  <DSSTox_CID>
691

>  <DSSTox_Generic_SID>
20691

>  <DSSTox_FileID>
723_CPDBAS_v5d

>  <STRUCTURE_Formula>
C13H22N2O

>  <STRUCTURE_MolecularWeight>
222.3296

>  <STRUCTURE_ChemicalType>
defined organic

>  <STRUCTURE_TestedForm_DefinedOrganic>
parent

>  <STRUCTURE_Shown>
tested chemical

>  <TestSubstance_ChemicalName>
3-(Hexahydro-4,7-methanoindan-5-yl)-1,1-dimethylurea

>  <TestSubstance_CASRN>
2163-79-3

>  <TestSubstance_Description>
single chemical compound

>  <STRUCTURE_ChemicalName_IUPAC>
1,1-dimethyl-3-(octahydro-1H-4,7-methanoinden-5-yl)urea

>  <STRUCTURE_SMILES>
C12C(C3C(CC1C3)NC(N(C)C)=O)CCC2

>  <STRUCTURE_Parent_SMILES>
C12C(C3C(CC1C3)NC(N(C)C)=O)CCC2

>  <STRUCTURE_InChI>
InChI=1/C13H22N2O/c1-15(2)13(16)14-12-7-8-6-11(12)10-5-3-4-9(8)10/h8-12H,3-7H2,1-2H3,(H,14,16)/f/h14H

>  <STRUCTURE_InChIKey>
YGLMVCVJLXREAK-YHMJCDSICF

>  <StudyType>
Carcinogenicity

>  <Endpoint>
TD50; Tumor Target Sites

>  <Species>
mouse

>  <ActivityScore_CPDBAS_Mouse>
0

>  <TD50_Mouse_Note>
no positive results

>  <TargetSites_Mouse_Male>
no positive results

>  <TargetSites_Mouse_Female>
no positive results

>  <ActivityOutcome_CPDBAS_Mouse>
inactive

>  <ActivityOutcome_CPDBAS_SingleCellCall>
inactive

>  <ActivityOutcome_CPDBAS_MultiCellCall>
inactive

>  <ActivityOutcome_CPDBAS_MultiCellCall_Details>
multisex inactive

>  <ChemicalPage_URL>
http://potency.berkeley.edu/chempages/3-(HEXAHYDRO-4,7-METHANOINDAN-5-YL)-1,1-DIMETHYLUR.html

$$$$



 10 12  0  0  0  0  0  0  0  0999 V2000
    0.5559   -2.0884    0.0000 N   0  0  0  0  0  0  0  0  0  0  0  0
    2.9112   -1.9879    0.0000 N   0  0  0  0  0  0  0  0  0  0  0  0
    1.0269   -2.6850    0.0000 N   0  0  0  0  0  0  0  0  0  0  0  0
    1.7586    0.0000    0.0000 N   0  0  0  0  0  0  0  0  0  0  0  0
    2.3427   -3.1404    0.0000 C   0  0  0  0  0  0  0  0  0  0  0  0
    1.8120   -2.5720    0.0000 C   0  0  0  0  0  0  0  0  0  0  0  0
    1.0269   -1.0144    0.0000 C   0  0  0  0  0  0  0  0  0  0  0  0
    0.5559   -0.6469    0.0000 C   0  0  0  0  0  0  0  0  0  0  0  0
    2.9112   -0.6720    0.0000 C   0  0  0  0  0  0  0  0  0  0  0  0
    0.0000   -3.1404    0.0000 C   0  0  0  0  0  0  0  0  0  0  0  0
  1  6  1  0  0  0  0
  1  8  1  0  0  0  0
  1 10  1  0  0  0  0
  2  6  1  0  0  0  0
  2  5  1  0  0  0  0
  2  9  1  0  0  0  0
  3 10  1  0  0  0  0
  3  5  1  0  0  0  0
  3  7  1  0  0  0  0
  4  8  1  0  0  0  0
  4  9  1  0  0  0  0
  4  7  1  0  0  0  0
M  END
>  <DSSTox_RID>
20692

>  <DSSTox_CID>
692

>  <DSSTox_Generic_SID>
20692

>  <DSSTox_FileID>
724_CPDBAS_v5d

>  <STRUCTURE_Formula>
C6H12N4

>  <STRUCTURE_MolecularWeight>
140.1863

>  <STRUCTURE_ChemicalType>
defined organic

>  <STRUCTURE_TestedForm_DefinedOrganic>
parent

>  <STRUCTURE_Shown>
tested chemical

>  <TestSubstance_ChemicalName>
Hexamethylenetetramine

>  <TestSubstance_CASRN>
100-97-0

>  <TestSubstance_Description>
single chemical compound

>  <STRUCTURE_ChemicalName_IUPAC>
1,3,5,7-tetraazatricyclo[3.3.1.1~3,7~]decane

>  <STRUCTURE_SMILES>
C1N2CN3CN(C2)CN1C3

>  <STRUCTURE_Parent_SMILES>
C1N2CN3CN(C2)CN1C3

>  <STRUCTURE_InChI>
InChI=1/C6H12N4/c1-7-2-9-4-8(1)5-10(3-7)6-9/h1-6H2

>  <STRUCTURE_InChIKey>
VKYKSIONXSXAKP-UHFFFAOYAW

>  <StudyType>
Carcinogenicity

>  <Endpoint>
TD50; Tumor Target Sites

>  <Species>
rat; mouse

>  <ActivityOutcome_CPDBAS_Mutagenicity>
active

>  <ActivityScore_CPDBAS_Rat>
0

>  <TD50_Rat_Note>
no positive results

>  <TargetSites_Rat_Male>
no positive results

>  <TargetSites_Rat_Female>
no positive results

>  <ActivityOutcome_CPDBAS_Rat>
inactive

>  <ActivityScore_CPDBAS_Mouse>
0

>  <TD50_Mouse_Note>
no positive results

>  <TargetSites_Mouse_Male>
no positive results

>  <TargetSites_Mouse_Female>
no positive results

>  <ActivityOutcome_CPDBAS_Mouse>
inactive

>  <ActivityOutcome_CPDBAS_SingleCellCall>
inactive

>  <ActivityOutcome_CPDBAS_MultiCellCall>
inactive

>  <ActivityOutcome_CPDBAS_MultiCellCall_Details>
multisex inactive; multispecies inactive

>  <ChemicalPage_URL>
http://potency.berkeley.edu/chempages/HEXAMETHYLENETETRAMINE.html

$$$$



 21 21  0  0  0  0  0  0  0  0999 V2000
    3.9879   -5.7563    0.0000 N   0  0  0  0  0  0  0  0  0  0  0  0
    3.3248   -4.6050    0.0000 C   0  0  0  0  0  0  0  0  0  0  0  0
    3.9879   -3.4538    0.0000 N   0  0  0  0  0  0  0  0  0  0  0  0
    5.3142   -3.4538    0.0000 C   0  0  0  0  0  0  0  0  0  0  0  0
    5.9865   -2.3025    0.0000 N   0  0  0  0  0  0  0  0  0  0  0  0
    7.3128   -2.3025    0.0000 C   0  0  0  0  0  0  0  0  0  0  0  0
    7.9759   -1.1513    0.0000 O   0  0  0  0  0  0  0  0  0  0  0  0
    5.3142   -1.1513    0.0000 C   0  0  0  0  0  0  0  0  0  0  0  0
    5.9865    0.0000    0.0000 O   0  0  0  0  0  0  0  0  0  0  0  0
    1.9986   -4.6050    0.0000 N   0  0  0  0  0  0  0  0  0  0  0  0
    1.3262   -3.4538    0.0000 C   0  0  0  0  0  0  0  0  0  0  0  0
    0.0000   -3.4538    0.0000 O   0  0  0  0  0  0  0  0  0  0  0  0
    1.3262   -5.7563    0.0000 C   0  0  0  0  0  0  0  0  0  0  0  0
    0.0000   -5.7563    0.0000 O   0  0  0  0  0  0  0  0  0  0  0  0
    5.3142   -5.7563    0.0000 C   0  0  0  0  0  0  0  0  0  0  0  0
    5.9865   -4.6050    0.0000 N   0  0  0  0  0  0  0  0  0  0  0  0
    5.9865   -6.9075    0.0000 N   0  0  0  0  0  0  0  0  0  0  0  0
    7.3128   -6.9075    0.0000 C   0  0  0  0  0  0  0  0  0  0  0  0
    7.9759   -8.0588    0.0000 O   0  0  0  0  0  0  0  0  0  0  0  0
    5.3142   -8.0588    0.0000 C   0  0  0  0  0  0  0  0  0  0  0  0
    5.9865   -9.2100    0.0000 O   0  0  0  0  0  0  0  0  0  0  0  0
  1  2  2  0  0  0  0
  1 15  1  0  0  0  0
  2  3  1  0  0  0  0
  2 10  1  0  0  0  0
  3  4  2  0  0  0  0
  4  5  1  0  0  0  0
  4 16  1  0  0  0  0
  5  6  1  0  0  0  0
  5  8  1  0  0  0  0
  6  7  1  0  0  0  0
  8  9  1  0  0  0  0
 10 11  1  0  0  0  0
 10 13  1  0  0  0  0
 11 12  1  0  0  0  0
 13 14  1  0  0  0  0
 15 16  2  0  0  0  0
 15 17  1  0  0  0  0
 17 18  1  0  0  0  0
 17 20  1  0  0  0  0
 18 19  1  0  0  0  0
 20 21  1  0  0  0  0
M  END
>  <DSSTox_RID>
20693

>  <DSSTox_CID>
693

>  <DSSTox_Generic_SID>
20693

>  <DSSTox_FileID>
725_CPDBAS_v5d

>  <STRUCTURE_Formula>
C9H18N6O6

>  <STRUCTURE_MolecularWeight>
306.2778

>  <STRUCTURE_ChemicalType>
defined organic

>  <STRUCTURE_TestedForm_DefinedOrganic>
parent

>  <STRUCTURE_Shown>
tested chemical

>  <TestSubstance_ChemicalName>
Hexamethylmelamine

>  <TestSubstance_CASRN>
531-18-0

>  <TestSubstance_Description>
single chemical compound

>  <STRUCTURE_ChemicalName_IUPAC>
(1,3,5-triazine-2,4,6-triyltrinitrilo)hexamethanol

>  <STRUCTURE_SMILES>
N1=C(N=C(N(CO)CO)N=C1N(CO)CO)N(CO)CO

>  <STRUCTURE_Parent_SMILES>
N1=C(N=C(N(CO)CO)N=C1N(CO)CO)N(CO)CO

>  <STRUCTURE_InChI>
InChI=1/C9H18N6O6/c16-1-13(2-17)7-10-8(14(3-18)4-19)12-9(11-7)15(5-20)6-21/h16-21H,1-6H2

>  <STRUCTURE_InChIKey>
YGCOKJWKWLYHTG-UHFFFAOYAF

>  <StudyType>
Carcinogenicity

>  <Endpoint>
TD50; Tumor Target Sites

>  <Species>
rat

>  <TD50_Rat_mg>
10.2

>  <TD50_Rat_mmol>
0.0333

>  <ActivityScore_CPDBAS_Rat>
41

>  <TargetSites_Rat_Female>
kidney; mammary gland

>  <ActivityOutcome_CPDBAS_Rat>
active

>  <ActivityOutcome_CPDBAS_SingleCellCall>
active

>  <ActivityOutcome_CPDBAS_MultiCellCall>
active

>  <ActivityOutcome_CPDBAS_MultiCellCall_Details>
multisite active

>  <ChemicalPage_URL>
http://potency.berkeley.edu/chempages/HEXAMETHYLMELAMINE.html

$$$$



 11 10  0  0  0  0  0  0  0  0999 V2000
    1.3337   -1.9906    0.0000 P   0  0  0  0  0  0  0  0  0  0  0  0
    1.3337   -0.6569    0.0000 N   0  0  0  0  0  0  0  0  0  0  0  0
    1.3337   -3.3243    0.0000 N   0  0  0  0  0  0  0  0  0  0  0  0
    2.6634   -1.9906    0.0000 N   0  0  0  0  0  0  0  0  0  0  0  0
    0.0000   -1.9906    0.0000 O   0  0  0  0  0  0  0  0  0  0  0  0
    0.1752   -3.9812    0.0000 C   0  0  0  0  0  0  0  0  0  0  0  0
    2.4882    0.0000    0.0000 C   0  0  0  0  0  0  0  0  0  0  0  0
    2.4723   -3.9812    0.0000 C   0  0  0  0  0  0  0  0  0  0  0  0
    3.3402   -3.1610    0.0000 C   0  0  0  0  0  0  0  0  0  0  0  0
    0.1911    0.0000    0.0000 C   0  0  0  0  0  0  0  0  0  0  0  0
    3.3402   -0.8520    0.0000 C   0  0  0  0  0  0  0  0  0  0  0  0
  1  2  1  0  0  0  0
  1  3  1  0  0  0  0
  1  4  1  0  0  0  0
  1  5  2  0  0  0  0
  2  7  1  0  0  0  0
  2 10  1  0  0  0  0
  3  6  1  0  0  0  0
  3  8  1  0  0  0  0
  4  9  1  0  0  0  0
  4 11  1  0  0  0  0
M  END
>  <DSSTox_RID>
20694

>  <DSSTox_CID>
694

>  <DSSTox_Generic_SID>
20694

>  <DSSTox_FileID>
726_CPDBAS_v5d

>  <STRUCTURE_Formula>
C6H18N3OP

>  <STRUCTURE_MolecularWeight>
179.2004

>  <STRUCTURE_ChemicalType>
defined organic

>  <STRUCTURE_TestedForm_DefinedOrganic>
parent

>  <STRUCTURE_Shown>
tested chemical

>  <TestSubstance_ChemicalName>
Hexamethylphosphoramide

>  <TestSubstance_CASRN>
680-31-9

>  <TestSubstance_Description>
single chemical compound

>  <STRUCTURE_ChemicalName_IUPAC>
N,N,N',N',N'',N''-hexamethylphosphoric triamide

>  <STRUCTURE_SMILES>
CN(C)P(=O)(N(C)C)N(C)C

>  <STRUCTURE_Parent_SMILES>
CN(C)P(=O)(N(C)C)N(C)C

>  <STRUCTURE_InChI>
InChI=1/C6H18N3OP/c1-7(2)11(10,8(3)4)9(5)6/h1-6H3

>  <STRUCTURE_InChIKey>
GNOIPBMMFNIUFM-UHFFFAOYAP

>  <StudyType>
Carcinogenicity

>  <Endpoint>
TD50; Tumor Target Sites

>  <Species>
rat

>  <ActivityOutcome_CPDBAS_Mutagenicity>
inactive

>  <TD50_Rat_mg>
0.0344

>  <TD50_Rat_mmol>
0.000192

>  <ActivityScore_CPDBAS_Rat>
64

>  <TD50_Rat_Note>
TD50 is harmonic mean of more than one positive test

>  <TargetSites_Rat_BothSexes>
nasal cavity

>  <ActivityOutcome_CPDBAS_Rat>
active

>  <ActivityOutcome_CPDBAS_SingleCellCall>
active

>  <Note_CPDBAS>
Rat added v2a; TD50_Rat modified v3a

>  <ChemicalPage_URL>
http://potency.berkeley.edu/chempages/HEXAMETHYLPHOSPHORAMIDE.html

$$$$



 11 10  0  0  0  0  0  0  0  0999 V2000
    0.0000   -1.9918    0.0000 C   0  0  0  0  0  0  0  0  0  0  0  0
    1.1515   -1.3279    0.0000 C   0  0  0  0  0  0  0  0  0  0  0  0
    2.3031   -1.9918    0.0000 C   0  0  0  0  0  0  0  0  0  0  0  0
    3.4546   -1.3279    0.0000 C   0  0  0  0  0  0  0  0  0  0  0  0
    4.6061   -1.9918    0.0000 C   0  0  0  0  0  0  0  0  0  0  0  0
    5.7681   -1.3279    0.0000 C   0  0  0  0  0  0  0  0  0  0  0  0
    6.9196   -1.9918    0.0000 N   0  0  0  0  0  0  0  0  0  0  0  0
    8.0711   -1.3279    0.0000 N   0  0  0  0  0  0  0  0  0  0  0  0
    9.2227   -1.9918    0.0000 C   0  0  0  0  0  0  0  0  0  0  0  0
   10.3742   -1.3279    0.0000 O   0  0  0  0  0  0  0  0  0  0  0  0
    8.0711    0.0000    0.0000 C   0  0  0  0  0  0  0  0  0  0  0  0
  1  2  1  0  0  0  0
  2  3  1  0  0  0  0
  3  4  1  0  0  0  0
  4  5  1  0  0  0  0
  5  6  1  0  0  0  0
  6  7  2  0  0  0  0
  7  8  1  0  0  0  0
  8  9  1  0  0  0  0
  8 11  1  0  0  0  0
  9 10  2  0  0  0  0
M  END
>  <DSSTox_RID>
20695

>  <DSSTox_CID>
695

>  <DSSTox_Generic_SID>
20695

>  <DSSTox_FileID>
727_CPDBAS_v5d

>  <STRUCTURE_Formula>
C8H16N2O

>  <STRUCTURE_MolecularWeight>
156.2272

>  <STRUCTURE_ChemicalType>
defined organic

>  <STRUCTURE_TestedForm_DefinedOrganic>
parent

>  <STRUCTURE_Shown>
tested chemical

>  <TestSubstance_ChemicalName>
Hexanal methylformylhydrazone

>  <TestSubstance_CASRN>
57590-22-4

>  <TestSubstance_Description>
single chemical compound

>  <STRUCTURE_ChemicalName_IUPAC>
N'-[(1E)-hexylidene]-N-methylformic hydrazide

>  <STRUCTURE_SMILES>
CCCCC/C=N/N(C=O)C

>  <STRUCTURE_Parent_SMILES>
CCCCC/C=N/N(C=O)C

>  <STRUCTURE_InChI>
InChI=1/C8H16N2O/c1-3-4-5-6-7-9-10(2)8-11/h7-8H,3-6H2,1-2H3/b9-7+

>  <STRUCTURE_InChIKey>
QRMNFHXPNKCTAG-VQHVLOKHBZ

>  <StudyType>
Carcinogenicity

>  <Endpoint>
TD50; Tumor Target Sites

>  <Species>
mouse

>  <TD50_Mouse_mg>
2.33

>  <TD50_Mouse_mmol>
0.0149

>  <ActivityScore_CPDBAS_Mouse>
49

>  <TD50_Mouse_Note>
TD50 is harmonic mean of more than one positive test

>  <TargetSites_Mouse_Male>
liver; lung; preputial gland

>  <TargetSites_Mouse_Female>
liver; lung

>  <ActivityOutcome_CPDBAS_Mouse>
active

>  <ActivityOutcome_CPDBAS_SingleCellCall>
active

>  <ActivityOutcome_CPDBAS_MultiCellCall>
active

>  <ActivityOutcome_CPDBAS_MultiCellCall_Details>
multisite active; multisex active

>  <ChemicalPage_URL>
http://potency.berkeley.edu/chempages/HEXANAL%20METHYLFORMYLHYDRAZONE.html

$$$$



  8  7  0  0  0  0  0  0  0  0999 V2000
    3.9913    0.0000    0.0000 N   0  0  0  0  0  0  0  0  0  0  0  0
    4.6555   -1.1549    0.0000 C   0  0  0  0  0  0  0  0  0  0  0  0
    5.9839   -1.1549    0.0000 O   0  0  0  0  0  0  0  0  0  0  0  0
    3.9913   -2.3038    0.0000 C   0  0  0  0  0  0  0  0  0  0  0  0
    2.6569   -2.3038    0.0000 C   0  0  0  0  0  0  0  0  0  0  0  0
    1.9926   -1.1549    0.0000 C   0  0  0  0  0  0  0  0  0  0  0  0
    0.6642   -1.1549    0.0000 C   0  0  0  0  0  0  0  0  0  0  0  0
    0.0000    0.0000    0.0000 C   0  0  0  0  0  0  0  0  0  0  0  0
  1  2  1  0  0  0  0
  2  3  2  0  0  0  0
  2  4  1  0  0  0  0
  4  5  1  0  0  0  0
  5  6  1  0  0  0  0
  6  7  1  0  0  0  0
  7  8  1  0  0  0  0
M  END
>  <DSSTox_RID>
20696

>  <DSSTox_CID>
696

>  <DSSTox_Generic_SID>
20696

>  <DSSTox_FileID>
728_CPDBAS_v5d

>  <STRUCTURE_Formula>
C6H13NO

>  <STRUCTURE_MolecularWeight>
115.1735

>  <STRUCTURE_ChemicalType>
defined organic

>  <STRUCTURE_TestedForm_DefinedOrganic>
parent

>  <STRUCTURE_Shown>
tested chemical

>  <TestSubstance_ChemicalName>
Hexanamide

>  <TestSubstance_CASRN>
628-02-4

>  <TestSubstance_Description>
single chemical compound

>  <STRUCTURE_ChemicalName_IUPAC>
hexanamide

>  <STRUCTURE_SMILES>
NC(=O)CCCCC

>  <STRUCTURE_Parent_SMILES>
NC(=O)CCCCC

>  <STRUCTURE_InChI>
InChI=1/C6H13NO/c1-2-3-4-5-6(7)8/h2-5H2,1H3,(H2,7,8)/f/h7H2

>  <STRUCTURE_InChIKey>
ALBYIUDWACNRRB-IAUQMDSZCG

>  <StudyType>
Carcinogenicity

>  <Endpoint>
TD50; Tumor Target Sites

>  <Species>
rat; mouse

>  <ActivityOutcome_CPDBAS_Mutagenicity>
inactive

>  <ActivityScore_CPDBAS_Rat>
0

>  <TD50_Rat_Note>
no positive results

>  <TargetSites_Rat_Male>
no positive results

>  <TargetSites_Rat_Female>
no positive results

>  <ActivityOutcome_CPDBAS_Rat>
inactive

>  <TD50_Mouse_mg>
1950

>  <TD50_Mouse_mmol>
16.9

>  <ActivityScore_CPDBAS_Mouse>
14

>  <TargetSites_Mouse_Male>
hematopoietic system

>  <TargetSites_Mouse_Female>
no positive results

>  <ActivityOutcome_CPDBAS_Mouse>
active

>  <ActivityOutcome_CPDBAS_SingleCellCall>
active

>  <ChemicalPage_URL>
http://potency.berkeley.edu/chempages/HEXANAMIDE.html

$$$$



 17 17  0  0  0  0  0  0  0  0999 V2000
    6.6542   -3.4618    0.0000 C   0  0  0  0  0  0  0  0  0  0  0  0
    5.9858   -2.3045    0.0000 C   0  0  0  0  0  0  0  0  0  0  0  0
    6.6542   -1.1573    0.0000 C   0  0  0  0  0  0  0  0  0  0  0  0
    7.9811   -1.1573    0.0000 C   0  0  0  0  0  0  0  0  0  0  0  0
    8.6495   -2.3045    0.0000 C   0  0  0  0  0  0  0  0  0  0  0  0
    7.9811   -3.4618    0.0000 C   0  0  0  0  0  0  0  0  0  0  0  0
    8.6495   -4.6091    0.0000 C   0  0  0  0  0  0  0  0  0  0  0  0
    9.9764   -2.3045    0.0000 C   0  0  0  0  0  0  0  0  0  0  0  0
    8.6495    0.0000    0.0000 O   0  0  0  0  0  0  0  0  0  0  0  0
    5.9858    0.0000    0.0000 C   0  0  0  0  0  0  0  0  0  0  0  0
    5.9858   -4.6091    0.0000 O   0  0  0  0  0  0  0  0  0  0  0  0
    4.6590   -4.6091    0.0000 C   0  0  0  0  0  0  0  0  0  0  0  0
    3.9905   -3.4618    0.0000 C   0  0  0  0  0  0  0  0  0  0  0  0
    2.6637   -3.4618    0.0000 C   0  0  0  0  0  0  0  0  0  0  0  0
    1.9953   -2.3045    0.0000 C   0  0  0  0  0  0  0  0  0  0  0  0
    0.6684   -2.3045    0.0000 C   0  0  0  0  0  0  0  0  0  0  0  0
    0.0000   -1.1573    0.0000 C   0  0  0  0  0  0  0  0  0  0  0  0
  1  2  2  0  0  0  0
  1  6  1  0  0  0  0
  1 11  1  0  0  0  0
  2  3  1  0  0  0  0
  3  4  2  0  0  0  0
  3 10  1  0  0  0  0
  4  5  1  0  0  0  0
  4  9  1  0  0  0  0
  5  6  2  0  0  0  0
  5  8  1  0  0  0  0
  6  7  1  0  0  0  0
 11 12  1  0  0  0  0
 12 13  1  0  0  0  0
 13 14  1  0  0  0  0
 14 15  1  0  0  0  0
 15 16  1  0  0  0  0
 16 17  1  0  0  0  0
M  END
>  <DSSTox_RID>
20697

>  <DSSTox_CID>
697

>  <DSSTox_Generic_SID>
20697

>  <DSSTox_FileID>
730_CPDBAS_v5d

>  <STRUCTURE_Formula>
C15H24O2

>  <STRUCTURE_MolecularWeight>
236.3534

>  <STRUCTURE_ChemicalType>
defined organic

>  <STRUCTURE_TestedForm_DefinedOrganic>
parent

>  <STRUCTURE_Shown>
tested chemical

>  <TestSubstance_ChemicalName>
1-O-Hexyl-2,3,5-trimethylhydroquinone

>  <TestSubstance_CASRN>
148081-72-5

>  <TestSubstance_Description>
single chemical compound

>  <STRUCTURE_ChemicalName_IUPAC>
4-(hexyloxy)-2,3,6-trimethylphenol

>  <STRUCTURE_SMILES>
C1(=CC(=C(C(=C1C)C)O)C)OCCCCCC

>  <STRUCTURE_Parent_SMILES>
C1(=CC(=C(C(=C1C)C)O)C)OCCCCCC

>  <STRUCTURE_InChI>
InChI=1/C15H24O2/c1-5-6-7-8-9-17-14-10-11(2)15(16)13(4)12(14)3/h10,16H,5-9H2,1-4H3

>  <STRUCTURE_InChIKey>
ATMNQRRJNBCQJO-UHFFFAOYAL

>  <StudyType>
Carcinogenicity

>  <Endpoint>
TD50; Tumor Target Sites

>  <Species>
rat

>  <ActivityScore_CPDBAS_Rat>
0

>  <TD50_Rat_Note>
no positive results

>  <TargetSites_Rat_Female>
no positive results

>  <ActivityOutcome_CPDBAS_Rat>
inactive

>  <ActivityOutcome_CPDBAS_SingleCellCall>
inactive

>  <ChemicalPage_URL>
http://potency.berkeley.edu/chempages/1-O-HEXYL-2,3,5-TRIMETHYLHYDROQUINONE.html

$$$$



 12 11  0  0  0  0  0  0  0  0999 V2000
    1.1519    0.0000    0.0000 O   0  0  0  0  0  0  0  0  0  0  0  0
    2.3039   -0.6635    0.0000 C   0  0  0  0  0  0  0  0  0  0  0  0
    2.3039   -1.9998    0.0000 N   0  0  0  0  0  0  0  0  0  0  0  0
    3.4558   -2.6633    0.0000 C   0  0  0  0  0  0  0  0  0  0  0  0
    4.6078   -1.9998    0.0000 C   0  0  0  0  0  0  0  0  0  0  0  0
    5.7597   -2.6633    0.0000 C   0  0  0  0  0  0  0  0  0  0  0  0
    6.9117   -1.9998    0.0000 C   0  0  0  0  0  0  0  0  0  0  0  0
    8.0636   -2.6633    0.0000 C   0  0  0  0  0  0  0  0  0  0  0  0
    9.2156   -1.9998    0.0000 C   0  0  0  0  0  0  0  0  0  0  0  0
    1.1519   -2.6633    0.0000 N   0  0  0  0  0  0  0  0  0  0  0  0
    0.0000   -1.9998    0.0000 O   0  0  0  0  0  0  0  0  0  0  0  0
    3.4558    0.0000    0.0000 N   0  0  0  0  0  0  0  0  0  0  0  0
  1  2  2  0  0  0  0
  2  3  1  0  0  0  0
  2 12  1  0  0  0  0
  3  4  1  0  0  0  0
  3 10  1  0  0  0  0
  4  5  1  0  0  0  0
  5  6  1  0  0  0  0
  6  7  1  0  0  0  0
  7  8  1  0  0  0  0
  8  9  1  0  0  0  0
 10 11  2  0  0  0  0
M  END
>  <DSSTox_RID>
20698

>  <DSSTox_CID>
698

>  <DSSTox_Generic_SID>
20698

>  <DSSTox_FileID>
731_CPDBAS_v5d

>  <STRUCTURE_Formula>
C7H15N3O2

>  <STRUCTURE_MolecularWeight>
173.2144

>  <STRUCTURE_ChemicalType>
defined organic

>  <STRUCTURE_TestedForm_DefinedOrganic>
parent

>  <STRUCTURE_Shown>
tested chemical

>  <TestSubstance_ChemicalName>
N-Hexylnitrosourea

>  <TestSubstance_CASRN>
18774-85-1

>  <TestSubstance_Description>
single chemical compound

>  <STRUCTURE_ChemicalName_IUPAC>
1-hexyl-1-nitrosourea

>  <STRUCTURE_SMILES>
O=C(N(CCCCCC)N=O)N

>  <STRUCTURE_Parent_SMILES>
O=C(N(CCCCCC)N=O)N

>  <STRUCTURE_InChI>
InChI=1/C7H15N3O2/c1-2-3-4-5-6-10(9-12)7(8)11/h2-6H2,1H3,(H2,8,11)/f/h8H2

>  <STRUCTURE_InChIKey>
JQPBCNVLZQUNCT-FSHFIPFOCN

>  <StudyType>
Carcinogenicity

>  <Endpoint>
TD50; Tumor Target Sites

>  <Species>
rat

>  <ActivityOutcome_CPDBAS_Mutagenicity>
active

>  <TD50_Rat_mg>
0.513

>  <TD50_Rat_mmol>
0.00296

>  <ActivityScore_CPDBAS_Rat>
52

>  <TD50_Rat_Note>
TD50 is harmonic mean of more than one positive test; harmonic mean of TD50 includes a value for upper 99% confidence limit from study with 100% tumor incidence but no lifetable

>  <TargetSites_Rat_Male>
large intestine; lung; stomach

>  <TargetSites_Rat_Female>
lung; mammary gland; stomach; uterus

>  <ActivityOutcome_CPDBAS_Rat>
active

>  <ActivityOutcome_CPDBAS_SingleCellCall>
active

>  <ActivityOutcome_CPDBAS_MultiCellCall>
active

>  <ActivityOutcome_CPDBAS_MultiCellCall_Details>
multisite active; multisex active

>  <Note_CPDBAS>
TD50_Rat_Note modified v5a

>  <ChemicalPage_URL>
http://potency.berkeley.edu/chempages/N-HEXYLNITROSOUREA.html

$$$$



 14 14  0  0  0  0  0  0  0  0999 V2000
    7.9795   -4.6042    0.0000 O   0  0  0  0  0  0  0  0  0  0  0  0
    7.3172   -3.4551    0.0000 C   0  0  0  0  0  0  0  0  0  0  0  0
    5.9846   -3.4551    0.0000 C   0  0  0  0  0  0  0  0  0  0  0  0
    5.3223   -2.2981    0.0000 C   0  0  0  0  0  0  0  0  0  0  0  0
    5.9846   -1.1491    0.0000 C   0  0  0  0  0  0  0  0  0  0  0  0
    7.3172   -1.1491    0.0000 C   0  0  0  0  0  0  0  0  0  0  0  0
    7.9795   -2.2981    0.0000 C   0  0  0  0  0  0  0  0  0  0  0  0
    7.9795    0.0000    0.0000 O   0  0  0  0  0  0  0  0  0  0  0  0
    5.3223   -4.6042    0.0000 C   0  0  0  0  0  0  0  0  0  0  0  0
    3.9898   -4.6042    0.0000 C   0  0  0  0  0  0  0  0  0  0  0  0
    3.3275   -3.4551    0.0000 C   0  0  0  0  0  0  0  0  0  0  0  0
    1.9949   -3.4551    0.0000 C   0  0  0  0  0  0  0  0  0  0  0  0
    1.3326   -2.2981    0.0000 C   0  0  0  0  0  0  0  0  0  0  0  0
    0.0000   -2.2981    0.0000 C   0  0  0  0  0  0  0  0  0  0  0  0
  1  2  1  0  0  0  0
  2  3  2  0  0  0  0
  2  7  1  0  0  0  0
  3  4  1  0  0  0  0
  3  9  1  0  0  0  0
  4  5  2  0  0  0  0
  5  6  1  0  0  0  0
  6  7  2  0  0  0  0
  6  8  1  0  0  0  0
  9 10  1  0  0  0  0
 10 11  1  0  0  0  0
 11 12  1  0  0  0  0
 12 13  1  0  0  0  0
 13 14  1  0  0  0  0
M  END
>  <DSSTox_RID>
20699

>  <DSSTox_CID>
699

>  <DSSTox_Generic_SID>
20699

>  <DSSTox_FileID>
732_CPDBAS_v5d

>  <STRUCTURE_Formula>
C12H18O2

>  <STRUCTURE_MolecularWeight>
194.2701

>  <STRUCTURE_ChemicalType>
defined organic

>  <STRUCTURE_TestedForm_DefinedOrganic>
parent

>  <STRUCTURE_Shown>
tested chemical

>  <TestSubstance_ChemicalName>
4-Hexylresorcinol

>  <TestSubstance_CASRN>
136-77-6

>  <TestSubstance_Description>
single chemical compound

>  <STRUCTURE_ChemicalName_IUPAC>
4-hexylbenzene-1,3-diol

>  <STRUCTURE_SMILES>
OC1=C(C=CC(=C1)O)CCCCCC

>  <STRUCTURE_Parent_SMILES>
OC1=C(C=CC(=C1)O)CCCCCC

>  <STRUCTURE_InChI>
InChI=1/C12H18O2/c1-2-3-4-5-6-10-7-8-11(13)9-12(10)14/h7-9,13-14H,2-6H2,1H3

>  <STRUCTURE_InChIKey>
WFJIVOKAWHGMBH-UHFFFAOYAH

>  <StudyType>
Carcinogenicity

>  <Endpoint>
TD50; Tumor Target Sites

>  <Species>
rat; mouse

>  <ActivityOutcome_CPDBAS_Mutagenicity>
inactive

>  <ActivityScore_CPDBAS_Rat>
0

>  <TD50_Rat_Note>
no positive results

>  <TargetSites_Rat_Male>
no positive results

>  <TargetSites_Rat_Female>
no positive results

>  <ActivityOutcome_CPDBAS_Rat>
inactive

>  <ActivityScore_CPDBAS_Mouse>
0

>  <TD50_Mouse_Note>
no positive results

>  <TargetSites_Mouse_Male>
no positive results

>  <TargetSites_Mouse_Female>
no positive results

>  <ActivityOutcome_CPDBAS_Mouse>
inactive

>  <ActivityOutcome_CPDBAS_SingleCellCall>
inactive

>  <ActivityOutcome_CPDBAS_MultiCellCall>
inactive

>  <ActivityOutcome_CPDBAS_MultiCellCall_Details>
multisex inactive; multispecies inactive

>  <NTP_TechnicalReport>
TR 330

>  <ChemicalPage_URL>
http://potency.berkeley.edu/chempages/4-HEXYLRESORCINOL.html

$$$$



 14 15  0  0  0  0  0  0  0  0999 V2000
    4.3386   -1.1499    0.0000 C   0  0  0  0  0  0  0  0  0  0  0  0
    3.5559   -2.2321    0.0000 N   0  0  0  0  0  0  0  0  0  0  0  0
    2.2901   -1.8166    0.0000 C   0  0  0  0  0  0  0  0  0  0  0  0
    2.2901   -0.4831    0.0000 S   0  0  0  0  0  0  0  0  0  0  0  0
    3.5559   -0.0773    0.0000 C   0  0  0  0  0  0  0  0  0  0  0  0
    1.2175   -2.5993    0.0000 N   0  0  0  0  0  0  0  0  0  0  0  0
    0.0000   -2.0582    0.0000 N   0  0  0  0  0  0  0  0  0  0  0  0
    5.6721   -1.1499    0.0000 C   0  0  0  0  0  0  0  0  0  0  0  0
    6.3388    0.0000    0.0000 C   0  0  0  0  0  0  0  0  0  0  0  0
    7.6627    0.0000    0.0000 C   0  0  0  0  0  0  0  0  0  0  0  0
    8.3294   -1.1499    0.0000 C   0  0  0  0  0  0  0  0  0  0  0  0
    7.6627   -2.2998    0.0000 C   0  0  0  0  0  0  0  0  0  0  0  0
    6.3388   -2.2998    0.0000 C   0  0  0  0  0  0  0  0  0  0  0  0
    9.6629   -1.1499    0.0000 N   0  0  0  0  0  0  0  0  0  0  0  0
  1  2  1  0  0  0  0
  1  5  2  0  0  0  0
  1  8  1  0  0  0  0
  2  3  2  0  0  0  0
  3  4  1  0  0  0  0
  3  6  1  0  0  0  0
  4  5  1  0  0  0  0
  6  7  1  0  0  0  0
  8  9  2  0  0  0  0
  8 13  1  0  0  0  0
  9 10  1  0  0  0  0
 10 11  2  0  0  0  0
 11 12  1  0  0  0  0
 11 14  1  0  0  0  0
 12 13  2  0  0  0  0
M  END
>  <DSSTox_RID>
20704

>  <DSSTox_CID>
704

>  <DSSTox_Generic_SID>
20704

>  <DSSTox_FileID>
737_CPDBAS_v5d

>  <STRUCTURE_Formula>
C9H10N4S

>  <STRUCTURE_MolecularWeight>
206.2648

>  <STRUCTURE_ChemicalType>
defined organic

>  <STRUCTURE_TestedForm_DefinedOrganic>
parent

>  <STRUCTURE_Shown>
tested chemical

>  <TestSubstance_ChemicalName>
2-Hydrazino-4-(p-aminophenyl) thiazole

>  <TestSubstance_CASRN>
26049-71-8

>  <TestSubstance_Description>
single chemical compound

>  <STRUCTURE_ChemicalName_IUPAC>
4-(2-hydrazino-1,3-thiazol-4-yl)aniline

>  <STRUCTURE_SMILES>
C1(N=C(SC=1)NN)C2=CC=C(C=C2)N

>  <STRUCTURE_Parent_SMILES>
C1(N=C(SC=1)NN)C2=CC=C(C=C2)N

>  <STRUCTURE_InChI>
InChI=1/C9H10N4S/c10-7-3-1-6(2-4-7)8-5-14-9(12-8)13-11/h1-5H,10-11H2,(H,12,13)/f/h13H

>  <STRUCTURE_InChIKey>
AKZHPJMVGQRYGX-NDKGDYFDCX

>  <StudyType>
Carcinogenicity

>  <Endpoint>
TD50; Tumor Target Sites

>  <Species>
rat; mouse

>  <TD50_Rat_mg>
1.03

>  <TD50_Rat_mmol>
0.00499

>  <ActivityScore_CPDBAS_Rat>
50

>  <TargetSites_Rat_Female>
hematopoietic system; mammary gland

>  <ActivityOutcome_CPDBAS_Rat>
active

>  <TD50_Mouse_mg>
11.3

>  <TD50_Mouse_mmol>
0.0548

>  <ActivityScore_CPDBAS_Mouse>
42

>  <TargetSites_Mouse_Female>
hematopoietic system

>  <ActivityOutcome_CPDBAS_Mouse>
active

>  <ActivityOutcome_CPDBAS_SingleCellCall>
active

>  <ActivityOutcome_CPDBAS_MultiCellCall>
active

>  <ActivityOutcome_CPDBAS_MultiCellCall_Details>
multisite active; multispecies active

>  <ChemicalPage_URL>
http://potency.berkeley.edu/chempages/2-HYDRAZINO-4-(p-AMINOPHENYL)THIAZOLE.html

$$$$



 15 16  0  0  0  0  0  0  0  0999 V2000
    0.0000   -2.9202    0.0000 N   0  0  0  0  0  0  0  0  0  0  0  0
    0.8939   -1.9369    0.0000 N   0  0  0  0  0  0  0  0  0  0  0  0
    2.1951   -2.2150    0.0000 C   0  0  0  0  0  0  0  0  0  0  0  0
    3.1784   -1.3210    0.0000 N   0  0  0  0  0  0  0  0  0  0  0  0
    4.3306   -1.9865    0.0000 C   0  0  0  0  0  0  0  0  0  0  0  0
    4.0525   -3.2877    0.0000 C   0  0  0  0  0  0  0  0  0  0  0  0
    2.7315   -3.4268    0.0000 S   0  0  0  0  0  0  0  0  0  0  0  0
    5.5523   -1.4402    0.0000 C   0  0  0  0  0  0  0  0  0  0  0  0
    5.8304   -0.1391    0.0000 C   0  0  0  0  0  0  0  0  0  0  0  0
    7.1515    0.0000    0.0000 C   0  0  0  0  0  0  0  0  0  0  0  0
    7.6878   -1.2217    0.0000 C   0  0  0  0  0  0  0  0  0  0  0  0
    6.7045   -2.1057    0.0000 O   0  0  0  0  0  0  0  0  0  0  0  0
    8.9890   -1.4998    0.0000 N   0  3  0  0  0  0  0  0  0  0  0  0
    9.9326   -0.5562    0.0000 O   0  5  0  0  0  0  0  0  0  0  0  0
    9.3367   -2.7811    0.0000 O   0  0  0  0  0  0  0  0  0  0  0  0
  1  2  1  0  0  0  0
  2  3  1  0  0  0  0
  3  4  2  0  0  0  0
  3  7  1  0  0  0  0
  4  5  1  0  0  0  0
  5  6  2  0  0  0  0
  5  8  1  0  0  0  0
  6  7  1  0  0  0  0
  8  9  2  0  0  0  0
  8 12  1  0  0  0  0
  9 10  1  0  0  0  0
 10 11  2  0  0  0  0
 11 12  1  0  0  0  0
 11 13  1  0  0  0  0
 13 14  1  0  0  0  0
 13 15  2  0  0  0  0
M  END
>  <DSSTox_RID>
20705

>  <DSSTox_CID>
705

>  <DSSTox_Generic_SID>
20705

>  <DSSTox_FileID>
738_CPDBAS_v5d

>  <STRUCTURE_Formula>
C7H6N4O3S

>  <STRUCTURE_MolecularWeight>
226.2094

>  <STRUCTURE_ChemicalType>
defined organic

>  <STRUCTURE_TestedForm_DefinedOrganic>
parent

>  <STRUCTURE_Shown>
tested chemical

>  <TestSubstance_ChemicalName>
2-Hydrazino-4-(5-nitro-2-furyl)thiazole

>  <TestSubstance_CASRN>
26049-68-3

>  <TestSubstance_Description>
single chemical compound

>  <STRUCTURE_ChemicalName_IUPAC>
2-hydrazino-4-(5-nitrofuran-2-yl)-1,3-thiazole

>  <STRUCTURE_SMILES>
NNC1=NC(=CS1)C2=CC=C(O2)[N+]([O-])=O

>  <STRUCTURE_Parent_SMILES>
NNC1=NC(=CS1)C2=CC=C(O2)[N+]([O-])=O

>  <STRUCTURE_InChI>
InChI=1/C7H6N4O3S/c8-10-7-9-4(3-15-7)5-1-2-6(14-5)11(12)13/h1-3H,8H2,(H,9,10)/f/h10H

>  <STRUCTURE_InChIKey>
KNRMJISYMHRPTH-KZFATGLACZ

>  <StudyType>
Carcinogenicity

>  <Endpoint>
TD50; Tumor Target Sites

>  <Species>
rat; mouse

>  <TD50_Rat_mg>
3.19

>  <TD50_Rat_mmol>
0.0141

>  <ActivityScore_CPDBAS_Rat>
45

>  <TD50_Rat_Note>
TD50 is harmonic mean of more than one positive test

>  <TargetSites_Rat_Female>
kidney; mammary gland

>  <ActivityOutcome_CPDBAS_Rat>
active

>  <TD50_Mouse_mg>
16.4

>  <TD50_Mouse_mmol>
0.0725

>  <ActivityScore_CPDBAS_Mouse>
41

>  <TargetSites_Mouse_Female>
stomach

>  <ActivityOutcome_CPDBAS_Mouse>
active

>  <ActivityOutcome_CPDBAS_SingleCellCall>
active

>  <ActivityOutcome_CPDBAS_MultiCellCall>
active

>  <ActivityOutcome_CPDBAS_MultiCellCall_Details>
multisite active; multispecies active

>  <ChemicalPage_URL>
http://potency.berkeley.edu/chempages/2-HYDRAZINO-4-(5-NITRO-2-FURYL)THIAZOLE.html

$$$$



 16 17  0  0  0  0  0  0  0  0999 V2000
    4.3377   -1.1567    0.0000 C   0  0  0  0  0  0  0  0  0  0  0  0
    3.5528   -2.2308    0.0000 N   0  0  0  0  0  0  0  0  0  0  0  0
    2.2928   -1.8177    0.0000 C   0  0  0  0  0  0  0  0  0  0  0  0
    2.2928   -0.4854    0.0000 S   0  0  0  0  0  0  0  0  0  0  0  0
    3.5528   -0.0826    0.0000 C   0  0  0  0  0  0  0  0  0  0  0  0
    1.2187   -2.6026    0.0000 N   0  0  0  0  0  0  0  0  0  0  0  0
    0.0000   -2.0656    0.0000 N   0  0  0  0  0  0  0  0  0  0  0  0
    5.6700   -1.1567    0.0000 C   0  0  0  0  0  0  0  0  0  0  0  0
    6.3310    0.0000    0.0000 C   0  0  0  0  0  0  0  0  0  0  0  0
    7.6633    0.0000    0.0000 C   0  0  0  0  0  0  0  0  0  0  0  0
    8.3346   -1.1567    0.0000 C   0  0  0  0  0  0  0  0  0  0  0  0
    7.6633   -2.3031    0.0000 C   0  0  0  0  0  0  0  0  0  0  0  0
    6.3310   -2.3031    0.0000 C   0  0  0  0  0  0  0  0  0  0  0  0
    9.6669   -1.1567    0.0000 N   0  3  0  0  0  0  0  0  0  0  0  0
   10.3278    0.0000    0.0000 O   0  5  0  0  0  0  0  0  0  0  0  0
   10.3278   -2.3031    0.0000 O   0  0  0  0  0  0  0  0  0  0  0  0
  1  2  1  0  0  0  0
  1  5  2  0  0  0  0
  1  8  1  0  0  0  0
  2  3  2  0  0  0  0
  3  4  1  0  0  0  0
  3  6  1  0  0  0  0
  4  5  1  0  0  0  0
  6  7  1  0  0  0  0
  8  9  2  0  0  0  0
  8 13  1  0  0  0  0
  9 10  1  0  0  0  0
 10 11  2  0  0  0  0
 11 12  1  0  0  0  0
 11 14  1  0  0  0  0
 12 13  2  0  0  0  0
 14 15  1  0  0  0  0
 14 16  2  0  0  0  0
M  END
>  <DSSTox_RID>
20706

>  <DSSTox_CID>
706

>  <DSSTox_Generic_SID>
20706

>  <DSSTox_FileID>
739_CPDBAS_v5d

>  <STRUCTURE_Formula>
C9H8N4O2S

>  <STRUCTURE_MolecularWeight>
236.2478

>  <STRUCTURE_ChemicalType>
defined organic

>  <STRUCTURE_TestedForm_DefinedOrganic>
parent

>  <STRUCTURE_Shown>
tested chemical

>  <TestSubstance_ChemicalName>
2-Hydrazino-4-(p-nitrophenyl) thiazole

>  <TestSubstance_CASRN>
26049-70-7

>  <TestSubstance_Description>
single chemical compound

>  <STRUCTURE_ChemicalName_IUPAC>
2-hydrazino-4-(4-nitrophenyl)-1,3-thiazole

>  <STRUCTURE_SMILES>
NNC1=NC(C2=CC=C([N+]([O-])=O)C=C2)=CS1

>  <STRUCTURE_Parent_SMILES>
NNC1=NC(C2=CC=C([N+]([O-])=O)C=C2)=CS1

>  <STRUCTURE_InChI>
InChI=1/C9H8N4O2S/c10-12-9-11-8(5-16-9)6-1-3-7(4-2-6)13(14)15/h1-5H,10H2,(H,11,12)/f/h12H

>  <STRUCTURE_InChIKey>
ZOJPXCPZDSRIKP-XWKXFZRBCA

>  <StudyType>
Carcinogenicity

>  <Endpoint>
TD50; Tumor Target Sites

>  <Species>
rat; mouse

>  <TD50_Rat_mg>
3.21

>  <TD50_Rat_mmol>
0.0136

>  <ActivityScore_CPDBAS_Rat>
45

>  <TD50_Rat_Note>
TD50 is harmonic mean of more than one positive test

>  <TargetSites_Rat_Female>
mammary gland

>  <ActivityOutcome_CPDBAS_Rat>
active

>  <TD50_Mouse_mg>
10.6

>  <TD50_Mouse_mmol>
0.0449

>  <ActivityScore_CPDBAS_Mouse>
43

>  <TargetSites_Mouse_Female>
hematopoietic system

>  <ActivityOutcome_CPDBAS_Mouse>
active

>  <ActivityOutcome_CPDBAS_SingleCellCall>
active

>  <ActivityOutcome_CPDBAS_MultiCellCall>
active

>  <ActivityOutcome_CPDBAS_MultiCellCall_Details>
multisite active; multispecies active

>  <ChemicalPage_URL>
http://potency.berkeley.edu/chempages/2-HYDRAZINO-4-(p-NITROPHENYL)THIAZOLE.html

$$$$



 13 14  0  0  0  0  0  0  0  0999 V2000
    0.0000   -0.5408    0.0000 N   0  0  0  0  0  0  0  0  0  0  0  0
    1.2147    0.0000    0.0000 N   0  0  0  0  0  0  0  0  0  0  0  0
    2.2880   -0.7821    0.0000 C   0  0  0  0  0  0  0  0  0  0  0  0
    3.5527   -0.3661    0.0000 N   0  0  0  0  0  0  0  0  0  0  0  0
    4.3347   -1.4477    0.0000 C   0  0  0  0  0  0  0  0  0  0  0  0
    3.5527   -2.5210    0.0000 C   0  0  0  0  0  0  0  0  0  0  0  0
    2.2880   -2.1133    0.0000 S   0  0  0  0  0  0  0  0  0  0  0  0
    5.6659   -1.4477    0.0000 C   0  0  0  0  0  0  0  0  0  0  0  0
    6.3232   -0.2912    0.0000 C   0  0  0  0  0  0  0  0  0  0  0  0
    7.6544   -0.2912    0.0000 C   0  0  0  0  0  0  0  0  0  0  0  0
    8.3200   -1.4477    0.0000 C   0  0  0  0  0  0  0  0  0  0  0  0
    7.6544   -2.5959    0.0000 C   0  0  0  0  0  0  0  0  0  0  0  0
    6.3232   -2.5959    0.0000 C   0  0  0  0  0  0  0  0  0  0  0  0
  1  2  1  0  0  0  0
  2  3  1  0  0  0  0
  3  4  2  0  0  0  0
  3  7  1  0  0  0  0
  4  5  1  0  0  0  0
  5  6  2  0  0  0  0
  5  8  1  0  0  0  0
  6  7  1  0  0  0  0
  8  9  2  0  0  0  0
  8 13  1  0  0  0  0
  9 10  1  0  0  0  0
 10 11  2  0  0  0  0
 11 12  1  0  0  0  0
 12 13  2  0  0  0  0
M  END
>  <DSSTox_RID>
20707

>  <DSSTox_CID>
707

>  <DSSTox_Generic_SID>
20707

>  <DSSTox_FileID>
740_CPDBAS_v5d

>  <STRUCTURE_Formula>
C9H9N3S

>  <STRUCTURE_MolecularWeight>
191.2502

>  <STRUCTURE_ChemicalType>
defined organic

>  <STRUCTURE_TestedForm_DefinedOrganic>
parent

>  <STRUCTURE_Shown>
tested chemical

>  <TestSubstance_ChemicalName>
2-Hydrazino-4-phenylthiazole

>  <TestSubstance_CASRN>
34176-52-8

>  <TestSubstance_Description>
single chemical compound

>  <STRUCTURE_ChemicalName_IUPAC>
2-hydrazino-4-phenyl-1,3-thiazole

>  <STRUCTURE_SMILES>
NNC1=NC(=CS1)C2=CC=CC=C2

>  <STRUCTURE_Parent_SMILES>
NNC1=NC(=CS1)C2=CC=CC=C2

>  <STRUCTURE_InChI>
InChI=1/C9H9N3S/c10-12-9-11-8(6-13-9)7-4-2-1-3-5-7/h1-6H,10H2,(H,11,12)/f/h12H

>  <STRUCTURE_InChIKey>
VTOUNUQLXMNNMQ-XWKXFZRBCO

>  <StudyType>
Carcinogenicity

>  <Endpoint>
TD50; Tumor Target Sites

>  <Species>
rat

>  <ActivityScore_CPDBAS_Rat>
0

>  <TD50_Rat_Note>
no positive results

>  <TargetSites_Rat_Female>
no positive results

>  <ActivityOutcome_CPDBAS_Rat>
inactive

>  <ActivityOutcome_CPDBAS_SingleCellCall>
inactive

>  <ChemicalPage_URL>
http://potency.berkeley.edu/chempages/2-HYDRAZINO-4-PHENYLTHIAZOLE.html

$$$$



 11 11  0  0  0  0  0  0  0  0999 V2000
    0.0000    0.0000    0.0000 O   0  0  0  0  0  0  0  0  0  0  0  0
    0.6654   -1.1511    0.0000 C   0  0  0  0  0  0  0  0  0  0  0  0
    0.0000   -2.3022    0.0000 O   0  0  0  0  0  0  0  0  0  0  0  0
    1.9961   -1.1511    0.0000 C   0  0  0  0  0  0  0  0  0  0  0  0
    2.6615    0.0000    0.0000 C   0  0  0  0  0  0  0  0  0  0  0  0
    3.9923    0.0000    0.0000 C   0  0  0  0  0  0  0  0  0  0  0  0
    4.6576   -1.1511    0.0000 C   0  0  0  0  0  0  0  0  0  0  0  0
    3.9923   -2.3022    0.0000 C   0  0  0  0  0  0  0  0  0  0  0  0
    2.6615   -2.3022    0.0000 C   0  0  0  0  0  0  0  0  0  0  0  0
    5.9884   -1.1511    0.0000 N   0  0  0  0  0  0  0  0  0  0  0  0
    6.6538    0.0000    0.0000 N   0  0  0  0  0  0  0  0  0  0  0  0
  1  2  1  0  0  0  0
  2  3  2  0  0  0  0
  2  4  1  0  0  0  0
  4  5  2  0  0  0  0
  4  9  1  0  0  0  0
  5  6  1  0  0  0  0
  6  7  2  0  0  0  0
  7  8  1  0  0  0  0
  7 10  1  0  0  0  0
  8  9  2  0  0  0  0
 10 11  1  0  0  0  0
M  END
>  <DSSTox_RID>
20708

>  <DSSTox_CID>
708

>  <DSSTox_Generic_SID>
20708

>  <DSSTox_FileID>
741_CPDBAS_v5d

>  <STRUCTURE_Formula>
C7H8N2O2

>  <STRUCTURE_MolecularWeight>
152.1524

>  <STRUCTURE_ChemicalType>
defined organic

>  <STRUCTURE_TestedForm_DefinedOrganic>
parent

>  <STRUCTURE_Shown>
tested chemical

>  <TestSubstance_ChemicalName>
p-Hydrazinobenzoic acid

>  <TestSubstance_CASRN>
619-67-0

>  <TestSubstance_Description>
single chemical compound

>  <STRUCTURE_ChemicalName_IUPAC>
4-hydrazinobenzoic acid

>  <STRUCTURE_SMILES>
OC(=O)C1=CC=C(C=C1)NN

>  <STRUCTURE_Parent_SMILES>
OC(=O)C1=CC=C(C=C1)NN

>  <STRUCTURE_InChI>
InChI=1/C7H8N2O2/c8-9-6-3-1-5(2-4-6)7(10)11/h1-4,9H,8H2,(H,10,11)/f/h10H

>  <STRUCTURE_InChIKey>
PCNFLKVWBDNNOW-KZFATGLACA

>  <StudyType>
Carcinogenicity

>  <Endpoint>
TD50; Tumor Target Sites

>  <Species>
mouse

>  <ActivityScore_CPDBAS_Mouse>
0

>  <TD50_Mouse_Note>
no positive results

>  <TargetSites_Mouse_Female>
no positive results

>  <ActivityOutcome_CPDBAS_Mouse>
inactive

>  <ActivityOutcome_CPDBAS_SingleCellCall>
inactive

>  <ChemicalPage_URL>
http://potency.berkeley.edu/chempages/p-HYDRAZINOBENZOIC%20ACID.html

$$$$



 14 15  0  0  0  0  0  0  0  0999 V2000
    3.9928   -1.1581    0.0000 N   0  0  0  0  0  0  0  0  0  0  0  0
    2.6619   -1.1581    0.0000 C   0  0  0  0  0  0  0  0  0  0  0  0
    1.9964   -2.3075    0.0000 C   0  0  0  0  0  0  0  0  0  0  0  0
    0.6655   -2.3075    0.0000 C   0  0  0  0  0  0  0  0  0  0  0  0
    0.0000   -1.1581    0.0000 C   0  0  0  0  0  0  0  0  0  0  0  0
    0.6655    0.0000    0.0000 C   0  0  0  0  0  0  0  0  0  0  0  0
    1.9964    0.0000    0.0000 C   0  0  0  0  0  0  0  0  0  0  0  0
    4.6497   -2.3075    0.0000 N   0  0  0  0  0  0  0  0  0  0  0  0
    5.9806   -2.3075    0.0000 C   0  0  0  0  0  0  0  0  0  0  0  0
    6.6461   -1.1581    0.0000 C   0  0  0  0  0  0  0  0  0  0  0  0
    7.9770   -1.1581    0.0000 C   0  0  0  0  0  0  0  0  0  0  0  0
    8.6425   -2.3075    0.0000 C   0  0  0  0  0  0  0  0  0  0  0  0
    7.9770   -3.4570    0.0000 C   0  0  0  0  0  0  0  0  0  0  0  0
    6.6461   -3.4570    0.0000 C   0  0  0  0  0  0  0  0  0  0  0  0
  1  2  1  0  0  0  0
  1  8  1  0  0  0  0
  2  3  2  0  0  0  0
  2  7  1  0  0  0  0
  3  4  1  0  0  0  0
  4  5  2  0  0  0  0
  5  6  1  0  0  0  0
  6  7  2  0  0  0  0
  8  9  1  0  0  0  0
  9 10  2  0  0  0  0
  9 14  1  0  0  0  0
 10 11  1  0  0  0  0
 11 12  2  0  0  0  0
 12 13  1  0  0  0  0
 13 14  2  0  0  0  0
M  END
>  <DSSTox_RID>
20710

>  <DSSTox_CID>
710

>  <DSSTox_Generic_SID>
20710

>  <DSSTox_FileID>
743_CPDBAS_v5d

>  <STRUCTURE_Formula>
C12H12N2

>  <STRUCTURE_MolecularWeight>
184.2371

>  <STRUCTURE_ChemicalType>
defined organic

>  <STRUCTURE_TestedForm_DefinedOrganic>
parent

>  <STRUCTURE_Shown>
tested chemical

>  <TestSubstance_ChemicalName>
Hydrazobenzene

>  <TestSubstance_CASRN>
122-66-7

>  <TestSubstance_Description>
single chemical compound

>  <STRUCTURE_ChemicalName_IUPAC>
1,2-diphenylhydrazine

>  <STRUCTURE_SMILES>
N(C1=CC=CC=C1)NC2=CC=CC=C2

>  <STRUCTURE_Parent_SMILES>
N(C1=CC=CC=C1)NC2=CC=CC=C2

>  <STRUCTURE_InChI>
InChI=1/C12H12N2/c1-3-7-11(8-4-1)13-14-12-9-5-2-6-10-12/h1-10,13-14H

>  <STRUCTURE_InChIKey>
YBQZXXMEJHZYMB-UHFFFAOYAR

>  <StudyType>
Carcinogenicity

>  <Endpoint>
TD50; Tumor Target Sites

>  <Species>
rat; mouse

>  <ActivityOutcome_CPDBAS_Mutagenicity>
active

>  <TD50_Rat_mg>
5.59

>  <TD50_Rat_mmol>
0.0303

>  <ActivityScore_CPDBAS_Rat>
41

>  <TD50_Rat_Note>
TD50 is harmonic mean of more than one positive test

>  <TargetSites_Rat_Male>
ear Zymbals gland; liver

>  <TargetSites_Rat_Female>
liver; mammary gland

>  <ActivityOutcome_CPDBAS_Rat>
active

>  <TD50_Mouse_mg>
26

>  <TD50_Mouse_mmol>
0.141

>  <ActivityScore_CPDBAS_Mouse>
38

>  <TargetSites_Mouse_Male>
no positive results

>  <TargetSites_Mouse_Female>
liver

>  <ActivityOutcome_CPDBAS_Mouse>
active

>  <ActivityOutcome_CPDBAS_SingleCellCall>
active

>  <ActivityOutcome_CPDBAS_MultiCellCall>
active

>  <ActivityOutcome_CPDBAS_MultiCellCall_Details>
multisite active; multisex active; multispecies active

>  <NTP_TechnicalReport>
TR 92

>  <ChemicalPage_URL>
http://potency.berkeley.edu/chempages/HYDRAZOBENZENE.html

$$$$



  7  6  0  0  0  0  0  0  0  0999 V2000
    1.3355   -1.3355    0.0000 C   0  0  0  0  0  0  0  0  0  0  0  0
    2.6711   -1.3355    0.0000 C   0  0  0  0  0  0  0  0  0  0  0  0
    1.3355    0.0000    0.0000 F   0  0  0  0  0  0  0  0  0  0  0  0
    0.0000   -1.3355    0.0000 F   0  0  0  0  0  0  0  0  0  0  0  0
    1.3355   -2.6711    0.0000 F   0  0  0  0  0  0  0  0  0  0  0  0
    3.3140   -2.4954    0.0000 Cl  0  0  0  0  0  0  0  0  0  0  0  0
    3.3140   -0.1922    0.0000 Cl  0  0  0  0  0  0  0  0  0  0  0  0
  1  2  1  0  0  0  0
  1  3  1  0  0  0  0
  1  4  1  0  0  0  0
  1  5  1  0  0  0  0
  2  6  1  0  0  0  0
  2  7  1  0  0  0  0
M  END
>  <DSSTox_RID>
20712

>  <DSSTox_CID>
712

>  <DSSTox_Generic_SID>
20712

>  <DSSTox_FileID>
745_CPDBAS_v5d

>  <STRUCTURE_Formula>
C2HCl2F3

>  <STRUCTURE_MolecularWeight>
152.9305

>  <STRUCTURE_ChemicalType>
defined organic

>  <STRUCTURE_TestedForm_DefinedOrganic>
parent

>  <STRUCTURE_Shown>
tested chemical

>  <TestSubstance_ChemicalName>
Hydrochlorofluorocarbon 123

>  <TestSubstance_CASRN>
306-83-2

>  <TestSubstance_Description>
single chemical compound

>  <STRUCTURE_ChemicalName_IUPAC>
2,2-dichloro-1,1,1-trifluoroethane

>  <STRUCTURE_SMILES>
ClC(Cl)C(F)(F)F

>  <STRUCTURE_Parent_SMILES>
ClC(Cl)C(F)(F)F

>  <STRUCTURE_InChI>
InChI=1/C2HCl2F3/c3-1(4)2(5,6)7/h1H

>  <STRUCTURE_InChIKey>
OHMHBGPWCHTMQE-UHFFFAOYAP

>  <StudyType>
Carcinogenicity

>  <Endpoint>
TD50; Tumor Target Sites

>  <Species>
rat

>  <TD50_Rat_mg>
2370

>  <TD50_Rat_mmol>
15.5

>  <ActivityScore_CPDBAS_Rat>
13

>  <TD50_Rat_Note>
TD50 is harmonic mean of more than one positive test; greater than ten-fold variation among TD50 values for positive results

>  <TargetSites_Rat_Male>
liver; pancreas; testes

>  <TargetSites_Rat_Female>
liver

>  <ActivityOutcome_CPDBAS_Rat>
active

>  <ActivityOutcome_CPDBAS_SingleCellCall>
active

>  <ActivityOutcome_CPDBAS_MultiCellCall>
active

>  <ActivityOutcome_CPDBAS_MultiCellCall_Details>
multisite active; multisex active

>  <Note_CPDBAS>
Rat added v2a

>  <ChemicalPage_URL>
http://potency.berkeley.edu/chempages/HYDROCHLOROFLUOROCARBON%20123.html

$$$$



 17 18  0  0  0  0  0  0  0  0999 V2000
    2.0037   -3.6827    0.0000 O   0  0  0  0  0  0  0  0  0  0  0  0
    1.1539   -2.6601    0.0000 S   0  0  0  0  0  0  0  0  0  0  0  0
    0.2971   -3.6827    0.0000 O   0  0  0  0  0  0  0  0  0  0  0  0
    2.3008   -1.9968    0.0000 C   0  0  0  0  0  0  0  0  0  0  0  0
    2.3008   -0.6702    0.0000 C   0  0  0  0  0  0  0  0  0  0  0  0
    3.4547    0.0000    0.0000 C   0  0  0  0  0  0  0  0  0  0  0  0
    4.6086   -0.6702    0.0000 C   0  0  0  0  0  0  0  0  0  0  0  0
    4.6086   -1.9968    0.0000 C   0  0  0  0  0  0  0  0  0  0  0  0
    3.4547   -2.6601    0.0000 C   0  0  0  0  0  0  0  0  0  0  0  0
    5.7555   -2.6601    0.0000 S   0  0  0  0  0  0  0  0  0  0  0  0
    5.0922   -3.8140    0.0000 O   0  0  0  0  0  0  0  0  0  0  0  0
    6.4257   -1.5132    0.0000 O   0  0  0  0  0  0  0  0  0  0  0  0
    6.9094   -3.3303    0.0000 N   0  0  0  0  0  0  0  0  0  0  0  0
    5.7555    0.0000    0.0000 Cl  0  0  0  0  0  0  0  0  0  0  0  0
    1.1539    0.0000    0.0000 N   0  0  0  0  0  0  0  0  0  0  0  0
    0.0000   -0.6702    0.0000 C   0  0  0  0  0  0  0  0  0  0  0  0
    0.0000   -1.9968    0.0000 N   0  0  0  0  0  0  0  0  0  0  0  0
  1  2  2  0  0  0  0
  2  3  2  0  0  0  0
  2  4  1  0  0  0  0
  2 17  1  0  0  0  0
  4  5  2  0  0  0  0
  4  9  1  0  0  0  0
  5  6  1  0  0  0  0
  5 15  1  0  0  0  0
  6  7  2  0  0  0  0
  7  8  1  0  0  0  0
  7 14  1  0  0  0  0
  8  9  2  0  0  0  0
  8 10  1  0  0  0  0
 10 11  2  0  0  0  0
 10 12  2  0  0  0  0
 10 13  1  0  0  0  0
 15 16  1  0  0  0  0
 16 17  1  0  0  0  0
M  END
>  <DSSTox_RID>
20713

>  <DSSTox_CID>
713

>  <DSSTox_Generic_SID>
20713

>  <DSSTox_FileID>
746_CPDBAS_v5d

>  <STRUCTURE_Formula>
C7H8ClN3O4S2

>  <STRUCTURE_MolecularWeight>
297.7391

>  <STRUCTURE_ChemicalType>
defined organic

>  <STRUCTURE_TestedForm_DefinedOrganic>
parent

>  <STRUCTURE_Shown>
tested chemical

>  <TestSubstance_ChemicalName>
Hydrochlorothiazide

>  <TestSubstance_CASRN>
58-93-5

>  <TestSubstance_Description>
single chemical compound

>  <STRUCTURE_ChemicalName_IUPAC>
6-chloro-3,4-dihydro-2H-1,2,4-benzothiadiazine-7-sulfonamide 1,1-dioxide

>  <STRUCTURE_SMILES>
O=S1(=O)C2=C(C=C(C(=C2)S(=O)(=O)N)Cl)NCN1

>  <STRUCTURE_Parent_SMILES>
O=S1(=O)C2=C(C=C(C(=C2)S(=O)(=O)N)Cl)NCN1

>  <STRUCTURE_InChI>
InChI=1/C7H8ClN3O4S2/c8-4-1-5-7(2-6(4)16(9,12)13)17(14,15)11-3-10-5/h1-2,10-11H,3H2,(H2,9,12,13)/f/h9H2

>  <STRUCTURE_InChIKey>
JZUFKLXOESDKRF-JSGPKCTECK

>  <StudyType>
Carcinogenicity

>  <Endpoint>
TD50; Tumor Target Sites

>  <Species>
rat; mouse

>  <ActivityOutcome_CPDBAS_Mutagenicity>
inactive

>  <ActivityScore_CPDBAS_Rat>
0

>  <TD50_Rat_Note>
no positive results

>  <TargetSites_Rat_Male>
no positive results

>  <TargetSites_Rat_Female>
no positive results

>  <ActivityOutcome_CPDBAS_Rat>
inactive

>  <ActivityScore_CPDBAS_Mouse>
0

>  <TD50_Mouse_Note>
no positive results

>  <TargetSites_Mouse_Male>
no positive results

>  <TargetSites_Mouse_Female>
no positive results

>  <ActivityOutcome_CPDBAS_Mouse>
inactive

>  <ActivityOutcome_CPDBAS_SingleCellCall>
inactive

>  <ActivityOutcome_CPDBAS_MultiCellCall>
inactive

>  <ActivityOutcome_CPDBAS_MultiCellCall_Details>
multisex inactive; multispecies inactive

>  <NTP_TechnicalReport>
TR 357

>  <ChemicalPage_URL>
http://potency.berkeley.edu/chempages/HYDROCHLOROTHIAZIDE.html

$$$$



 29 32  0  0  1  0  0  0  0  0999 V2000
    6.9475   -3.7219    0.0000 C   0  0  2  0  0  0  0  0  0  0  0  0
    3.4833   -5.7259    0.0000 C   0  0  2  0  0  0  0  0  0  0  0  0
    8.2167   -3.3306    0.0000 C   0  0  1  0  0  0  0  0  0  0  0  0
    5.7927   -5.7259    0.0000 C   0  0  1  0  0  0  0  0  0  0  0  0
    6.9475   -5.0675    0.0000 C   0  0  2  0  0  0  0  0  0  0  0  0
    4.6285   -5.0484    0.0000 C   0  0  2  0  0  0  0  0  0  0  0  0
    3.4833   -7.0525    0.0000 C   0  0  0  0  0  0  0  0  0  0  0  0
    5.7832   -3.0634    0.0000 C   0  0  0  0  0  0  0  0  0  0  0  0
    4.6285   -3.7219    0.0000 C   0  0  2  0  0  0  0  0  0  0  0  0
    2.3381   -7.7109    0.0000 C   0  0  0  0  0  0  0  0  0  0  0  0
    8.2167   -1.9945    0.0000 C   0  0  0  0  0  0  0  0  0  0  0  0
    8.9706   -4.3803    0.0000 C   0  0  0  0  0  0  0  0  0  0  0  0
    8.2167   -5.4587    0.0000 C   0  0  0  0  0  0  0  0  0  0  0  0
    5.7927   -7.0429    0.0000 C   0  0  0  0  0  0  0  0  0  0  0  0
    2.3381   -5.0484    0.0000 C   0  0  0  0  0  0  0  0  0  0  0  0
    4.6285   -7.7109    0.0000 C   0  0  0  0  0  0  0  0  0  0  0  0
    1.1929   -7.0429    0.0000 C   0  0  0  0  0  0  0  0  0  0  0  0
    9.3619   -1.3170    0.0000 O   0  0  0  0  0  0  0  0  0  0  0  0
    0.0000   -7.6823    0.0000 O   0  0  0  0  0  0  0  0  0  0  0  0
    9.5432   -3.3783    0.0000 O   0  0  0  0  0  0  0  0  0  0  0  0
    6.9570   -2.3858    0.0000 C   0  0  0  0  0  0  0  0  0  0  0  0
    1.1929   -5.7259    0.0000 C   0  0  0  0  0  0  0  0  0  0  0  0
    3.4642   -3.0538    0.0000 O   0  0  0  0  0  0  0  0  0  0  0  0
    3.4833   -4.3803    0.0000 C   0  0  0  0  0  0  0  0  0  0  0  0
    7.0715   -1.3361    0.0000 C   0  0  0  0  0  0  0  0  0  0  0  0
    7.0715    0.0000    0.0000 O   0  0  0  0  0  0  0  0  0  0  0  0
    5.7927   -4.3994    0.0000 H   0  0  0  0  0  0  0  0  0  0  0  0
    6.9475   -6.3940    0.0000 H   0  0  0  0  0  0  0  0  0  0  0  0
    4.6285   -6.3844    0.0000 H   0  0  0  0  0  0  0  0  0  0  0  0
  1  3  1  0  0  0  0
  1  5  1  0  0  0  0
  1  8  1  0  0  0  0
  1 21  1  1  0  0  0
  2  6  1  0  0  0  0
  2  7  1  0  0  0  0
  2 15  1  0  0  0  0
  2 24  1  1  0  0  0
  3 11  1  0  0  0  0
  3 12  1  0  0  0  0
  3 20  1  6  0  0  0
  4  5  1  0  0  0  0
  4 14  1  0  0  0  0
  4  6  1  0  0  0  0
  4 27  1  1  0  0  0
  5 13  1  0  0  0  0
  5 28  1  6  0  0  0
  6  9  1  0  0  0  0
  6 29  1  6  0  0  0
  7 10  2  0  0  0  0
  7 16  1  0  0  0  0
  8  9  1  0  0  0  0
  9 23  1  1  0  0  0
 10 17  1  0  0  0  0
 11 18  2  0  0  0  0
 11 25  1  0  0  0  0
 12 13  1  0  0  0  0
 14 16  1  0  0  0  0
 15 22  1  0  0  0  0
 17 22  1  0  0  0  0
 17 19  2  0  0  0  0
 25 26  1  0  0  0  0
M  END
>  <DSSTox_RID>
20714

>  <DSSTox_CID>
714

>  <DSSTox_Generic_SID>
20714

>  <DSSTox_FileID>
747_CPDBAS_v5d

>  <STRUCTURE_Formula>
C21H30O5

>  <STRUCTURE_MolecularWeight>
362.4599

>  <STRUCTURE_ChemicalType>
defined organic

>  <STRUCTURE_TestedForm_DefinedOrganic>
parent

>  <STRUCTURE_Shown>
tested chemical

>  <TestSubstance_ChemicalName>
Hydrocortisone

>  <TestSubstance_CASRN>
50-23-7

>  <TestSubstance_Description>
single chemical compound

>  <ChemicalNote>
stereochem

>  <STRUCTURE_ChemicalName_IUPAC>
(11beta)-11,17,21-trihydroxypregn-4-ene-3,20-dione

>  <STRUCTURE_SMILES>
OCC(=O)[C@@]2(O)CC[C@H]3[C@@H]4CC\C1=C\C(=O)CC[C@]1(C)[C@H]4[C@@H](O)C[C@]23C

>  <STRUCTURE_Parent_SMILES>
OCC(=O)[C@@]2(O)CC[C@H]3[C@@H]4CC\C1=C\C(=O)CC[C@]1(C)[C@H]4[C@@H](O)C[C@]23C

>  <STRUCTURE_InChI>
InChI=1/C21H30O5/c1-19-7-5-13(23)9-12(19)3-4-14-15-6-8-21(26,17(25)11-22)20(15,2)10-16(24)18(14)19/h9,14-16,18,22,24,26H,3-8,10-11H2,1-2H3/t14-,15-,16-,18+,19-,20-,21-/m0/s1

>  <STRUCTURE_InChIKey>
JYGXADMDTFJGBT-VWUMJDOOBO

>  <StudyType>
Carcinogenicity

>  <Endpoint>
TD50; Tumor Target Sites

>  <Species>
rat

>  <ActivityScore_CPDBAS_Rat>
0

>  <TD50_Rat_Note>
no positive results

>  <TargetSites_Rat_Male>
no positive results

>  <TargetSites_Rat_Female>
no positive results

>  <ActivityOutcome_CPDBAS_Rat>
inactive

>  <ActivityOutcome_CPDBAS_SingleCellCall>
inactive

>  <ActivityOutcome_CPDBAS_MultiCellCall>
inactive

>  <ActivityOutcome_CPDBAS_MultiCellCall_Details>
multisex inactive

>  <ChemicalPage_URL>
http://potency.berkeley.edu/chempages/HYDROCORTISONE.html

$$$$



  8  8  0  0  0  0  0  0  0  0999 V2000
    0.0000   -1.1545    0.0000 O   0  0  0  0  0  0  0  0  0  0  0  0
    1.3300   -1.1545    0.0000 C   0  0  0  0  0  0  0  0  0  0  0  0
    1.9950    0.0000    0.0000 C   0  0  0  0  0  0  0  0  0  0  0  0
    3.3250    0.0000    0.0000 C   0  0  0  0  0  0  0  0  0  0  0  0
    3.9900   -1.1545    0.0000 C   0  0  0  0  0  0  0  0  0  0  0  0
    3.3250   -2.3036    0.0000 C   0  0  0  0  0  0  0  0  0  0  0  0
    1.9950   -2.3036    0.0000 C   0  0  0  0  0  0  0  0  0  0  0  0
    5.3201   -1.1545    0.0000 O   0  0  0  0  0  0  0  0  0  0  0  0
  1  2  1  0  0  0  0
  2  3  2  0  0  0  0
  2  7  1  0  0  0  0
  3  4  1  0  0  0  0
  4  5  2  0  0  0  0
  5  6  1  0  0  0  0
  5  8  1  0  0  0  0
  6  7  2  0  0  0  0
M  END
>  <DSSTox_RID>
20716

>  <DSSTox_CID>
716

>  <DSSTox_Generic_SID>
20716

>  <DSSTox_FileID>
749_CPDBAS_v5d

>  <STRUCTURE_Formula>
C6H6O2

>  <STRUCTURE_MolecularWeight>
110.1106

>  <STRUCTURE_ChemicalType>
defined organic

>  <STRUCTURE_TestedForm_DefinedOrganic>
parent

>  <STRUCTURE_Shown>
tested chemical

>  <TestSubstance_ChemicalName>
Hydroquinone

>  <TestSubstance_CASRN>
123-31-9

>  <TestSubstance_Description>
single chemical compound

>  <STRUCTURE_ChemicalName_IUPAC>
hydroquinone

>  <STRUCTURE_SMILES>
OC1=CC=C(C=C1)O

>  <STRUCTURE_Parent_SMILES>
OC1=CC=C(C=C1)O

>  <STRUCTURE_InChI>
InChI=1/C6H6O2/c7-5-1-2-6(8)4-3-5/h1-4,7-8H

>  <STRUCTURE_InChIKey>
QIGBRXMKCJKVMJ-UHFFFAOYAX

>  <StudyType>
Carcinogenicity

>  <Endpoint>
TD50; Tumor Target Sites

>  <Species>
rat; mouse

>  <ActivityOutcome_CPDBAS_Mutagenicity>
inactive

>  <TD50_Rat_mg>
82.8

>  <TD50_Rat_mmol>
0.752

>  <ActivityScore_CPDBAS_Rat>
27

>  <TD50_Rat_Note>
TD50 is harmonic mean of more than one positive test

>  <TargetSites_Rat_Male>
kidney

>  <TargetSites_Rat_Female>
hematopoietic system

>  <ActivityOutcome_CPDBAS_Rat>
active

>  <TD50_Mouse_mg>
225

>  <TD50_Mouse_mmol>
2.04

>  <ActivityScore_CPDBAS_Mouse>
25

>  <TD50_Mouse_Note>
TD50 is harmonic mean of more than one positive test; greater than ten-fold variation among TD50 values for positive results

>  <TargetSites_Mouse_Male>
kidney; liver

>  <TargetSites_Mouse_Female>
liver

>  <ActivityOutcome_CPDBAS_Mouse>
active

>  <ActivityOutcome_CPDBAS_SingleCellCall>
active

>  <ActivityOutcome_CPDBAS_MultiCellCall>
active

>  <ActivityOutcome_CPDBAS_MultiCellCall_Details>
multisite active; multisex active; multispecies active

>  <NTP_TechnicalReport>
TR 366; final call in CPDB differs due to additional data

>  <ChemicalPage_URL>
http://potency.berkeley.edu/chempages/HYDROQUINONE.html

$$$$



 15 16  0  0  0  0  0  0  0  0999 V2000
    9.9758   -2.3044    0.0000 O   0  0  0  0  0  0  0  0  0  0  0  0
    8.6490   -2.3044    0.0000 C   0  0  0  0  0  0  0  0  0  0  0  0
    7.9806   -3.4516    0.0000 C   0  0  0  0  0  0  0  0  0  0  0  0
    6.6538   -3.4516    0.0000 C   0  0  0  0  0  0  0  0  0  0  0  0
    5.9855   -2.3044    0.0000 C   0  0  0  0  0  0  0  0  0  0  0  0
    6.6538   -1.1472    0.0000 C   0  0  0  0  0  0  0  0  0  0  0  0
    7.9806   -1.1472    0.0000 C   0  0  0  0  0  0  0  0  0  0  0  0
    4.6587   -2.3044    0.0000 O   0  0  0  0  0  0  0  0  0  0  0  0
    3.9903   -1.1472    0.0000 C   0  0  0  0  0  0  0  0  0  0  0  0
    2.6635   -1.1472    0.0000 C   0  0  0  0  0  0  0  0  0  0  0  0
    1.9952   -2.3044    0.0000 C   0  0  0  0  0  0  0  0  0  0  0  0
    0.6684   -2.3044    0.0000 C   0  0  0  0  0  0  0  0  0  0  0  0
    0.0000   -1.1472    0.0000 C   0  0  0  0  0  0  0  0  0  0  0  0
    0.6684    0.0000    0.0000 C   0  0  0  0  0  0  0  0  0  0  0  0
    1.9952    0.0000    0.0000 C   0  0  0  0  0  0  0  0  0  0  0  0
  1  2  1  0  0  0  0
  2  3  2  0  0  0  0
  2  7  1  0  0  0  0
  3  4  1  0  0  0  0
  4  5  2  0  0  0  0
  5  6  1  0  0  0  0
  5  8  1  0  0  0  0
  6  7  2  0  0  0  0
  8  9  1  0  0  0  0
  9 10  1  0  0  0  0
 10 11  2  0  0  0  0
 10 15  1  0  0  0  0
 11 12  1  0  0  0  0
 12 13  2  0  0  0  0
 13 14  1  0  0  0  0
 14 15  2  0  0  0  0
M  END
>  <DSSTox_RID>
20717

>  <DSSTox_CID>
717

>  <DSSTox_Generic_SID>
20717

>  <DSSTox_FileID>
750_CPDBAS_v5d

>  <STRUCTURE_Formula>
C13H12O2

>  <STRUCTURE_MolecularWeight>
200.2332

>  <STRUCTURE_ChemicalType>
defined organic

>  <STRUCTURE_TestedForm_DefinedOrganic>
parent

>  <STRUCTURE_Shown>
tested chemical

>  <TestSubstance_ChemicalName>
Hydroquinone monobenzyl ether

>  <TestSubstance_CASRN>
103-16-2

>  <TestSubstance_Description>
single chemical compound

>  <STRUCTURE_ChemicalName_IUPAC>
4-(benzyloxy)phenol

>  <STRUCTURE_SMILES>
OC1=CC=C(C=C1)OCC2=CC=CC=C2

>  <STRUCTURE_Parent_SMILES>
OC1=CC=C(C=C1)OCC2=CC=CC=C2

>  <STRUCTURE_InChI>
InChI=1/C13H12O2/c14-12-6-8-13(9-7-12)15-10-11-4-2-1-3-5-11/h1-9,14H,10H2

>  <STRUCTURE_InChIKey>
VYQNWZOUAUKGHI-UHFFFAOYAB

>  <StudyType>
Carcinogenicity

>  <Endpoint>
TD50; Tumor Target Sites

>  <Species>
mouse

>  <ActivityScore_CPDBAS_Mouse>
0

>  <TD50_Mouse_Note>
no positive results

>  <TargetSites_Mouse_Male>
no positive results

>  <TargetSites_Mouse_Female>
no positive results

>  <ActivityOutcome_CPDBAS_Mouse>
inactive

>  <ActivityOutcome_CPDBAS_SingleCellCall>
inactive

>  <ActivityOutcome_CPDBAS_MultiCellCall>
inactive

>  <ActivityOutcome_CPDBAS_MultiCellCall_Details>
multisex inactive

>  <ChemicalPage_URL>
http://potency.berkeley.edu/chempages/HYDROQUINONE%20MONOBENZYL%20ETHER.html

$$$$



 17 18  0  0  0  0  0  0  0  0999 V2000
    3.9896   -2.3040    0.0000 C   0  0  0  0  0  0  0  0  0  0  0  0
    2.6631   -2.3040    0.0000 C   0  0  0  0  0  0  0  0  0  0  0  0
    1.9948   -3.4610    0.0000 C   0  0  0  0  0  0  0  0  0  0  0  0
    0.6683   -3.4610    0.0000 C   0  0  0  0  0  0  0  0  0  0  0  0
    0.0000   -2.3040    0.0000 C   0  0  0  0  0  0  0  0  0  0  0  0
    0.6683   -1.1570    0.0000 C   0  0  0  0  0  0  0  0  0  0  0  0
    1.9948   -1.1570    0.0000 C   0  0  0  0  0  0  0  0  0  0  0  0
    4.6579   -1.1570    0.0000 C   0  0  0  0  0  0  0  0  0  0  0  0
    5.9844   -1.1570    0.0000 C   0  0  0  0  0  0  0  0  0  0  0  0
    6.6527   -2.3040    0.0000 C   0  0  0  0  0  0  0  0  0  0  0  0
    5.9844   -3.4610    0.0000 C   0  0  0  0  0  0  0  0  0  0  0  0
    4.6579   -3.4610    0.0000 C   0  0  0  0  0  0  0  0  0  0  0  0
    7.9793   -2.3040    0.0000 N   0  0  0  0  0  0  0  0  0  0  0  0
    8.6475   -3.4610    0.0000 C   0  0  0  0  0  0  0  0  0  0  0  0
    7.9793   -4.6080    0.0000 O   0  0  0  0  0  0  0  0  0  0  0  0
    9.9741   -3.4610    0.0000 C   0  0  0  0  0  0  0  0  0  0  0  0
    6.6527    0.0000    0.0000 O   0  0  0  0  0  0  0  0  0  0  0  0
  1  2  1  0  0  0  0
  1  8  2  0  0  0  0
  1 12  1  0  0  0  0
  2  3  2  0  0  0  0
  2  7  1  0  0  0  0
  3  4  1  0  0  0  0
  4  5  2  0  0  0  0
  5  6  1  0  0  0  0
  6  7  2  0  0  0  0
  8  9  1  0  0  0  0
  9 10  2  0  0  0  0
  9 17  1  0  0  0  0
 10 11  1  0  0  0  0
 10 13  1  0  0  0  0
 11 12  2  0  0  0  0
 13 14  1  0  0  0  0
 14 15  2  0  0  0  0
 14 16  1  0  0  0  0
M  END
>  <DSSTox_RID>
20718

>  <DSSTox_CID>
718

>  <DSSTox_Generic_SID>
20718

>  <DSSTox_FileID>
751_CPDBAS_v5d

>  <STRUCTURE_Formula>
C14H13NO2

>  <STRUCTURE_MolecularWeight>
227.2622

>  <STRUCTURE_ChemicalType>
defined organic

>  <STRUCTURE_TestedForm_DefinedOrganic>
parent

>  <STRUCTURE_Shown>
tested chemical

>  <TestSubstance_ChemicalName>
3-Hydroxy-4-acetylaminobiphenyl

>  <TestSubstance_CASRN>
4463-22-3

>  <TestSubstance_Description>
single chemical compound

>  <STRUCTURE_ChemicalName_IUPAC>
N-(3-hydroxybiphenyl-4-yl)acetamide

>  <STRUCTURE_SMILES>
C1(C2=CC=CC=C2)=CC(=C(C=C1)NC(=O)C)O

>  <STRUCTURE_Parent_SMILES>
C1(C2=CC=CC=C2)=CC(=C(C=C1)NC(=O)C)O

>  <STRUCTURE_InChI>
InChI=1/C14H13NO2/c1-10(16)15-13-8-7-12(9-14(13)17)11-5-3-2-4-6-11/h2-9,17H,1H3,(H,15,16)/f/h15H

>  <STRUCTURE_InChIKey>
USYQPRSFXFKSHI-YAQRNVERCN

>  <StudyType>
Carcinogenicity

>  <Endpoint>
TD50; Tumor Target Sites

>  <Species>
rat

>  <ActivityScore_CPDBAS_Rat>
0

>  <TD50_Rat_Note>
no positive results

>  <TargetSites_Rat_Female>
no positive results

>  <ActivityOutcome_CPDBAS_Rat>
inactive

>  <ActivityOutcome_CPDBAS_SingleCellCall>
inactive

>  <ChemicalPage_URL>
http://potency.berkeley.edu/chempages/3-HYDROXY-4-ACETYLAMINOBIPHENYL.html

$$$$



 18 20  0  0  0  0  0  0  0  0999 V2000
    0.0000   -2.3030    0.0000 C   0  0  0  0  0  0  0  0  0  0  0  0
    1.3313   -2.3030    0.0000 C   0  0  0  0  0  0  0  0  0  0  0  0
    1.9920   -3.4593    0.0000 O   0  0  0  0  0  0  0  0  0  0  0  0
    1.9920   -1.1564    0.0000 N   0  0  0  0  0  0  0  0  0  0  0  0
    1.3313    0.0000    0.0000 O   0  0  0  0  0  0  0  0  0  0  0  0
    3.3233   -1.1564    0.0000 C   0  0  0  0  0  0  0  0  0  0  0  0
    3.9938   -2.3030    0.0000 C   0  0  0  0  0  0  0  0  0  0  0  0
    5.3251   -2.3030    0.0000 C   0  0  0  0  0  0  0  0  0  0  0  0
    5.9858   -1.1564    0.0000 C   0  0  0  0  0  0  0  0  0  0  0  0
    5.3251    0.0000    0.0000 C   0  0  0  0  0  0  0  0  0  0  0  0
    3.9938    0.0000    0.0000 C   0  0  0  0  0  0  0  0  0  0  0  0
    7.2880   -1.4284    0.0000 C   0  0  0  0  0  0  0  0  0  0  0  0
    8.3666   -0.6511    0.0000 C   0  0  0  0  0  0  0  0  0  0  0  0
    9.5812   -1.1952    0.0000 C   0  0  0  0  0  0  0  0  0  0  0  0
    9.7173   -2.5168    0.0000 C   0  0  0  0  0  0  0  0  0  0  0  0
    8.6387   -3.2942    0.0000 C   0  0  0  0  0  0  0  0  0  0  0  0
    7.4240   -2.7500    0.0000 C   0  0  0  0  0  0  0  0  0  0  0  0
    6.2093   -3.2942    0.0000 C   0  0  0  0  0  0  0  0  0  0  0  0
  1  2  1  0  0  0  0
  2  3  2  0  0  0  0
  2  4  1  0  0  0  0
  4  5  1  0  0  0  0
  4  6  1  0  0  0  0
  6  7  2  0  0  0  0
  6 11  1  0  0  0  0
  7  8  1  0  0  0  0
  8  9  2  0  0  0  0
  8 18  1  0  0  0  0
  9 10  1  0  0  0  0
  9 12  1  0  0  0  0
 10 11  2  0  0  0  0
 12 13  2  0  0  0  0
 12 17  1  0  0  0  0
 13 14  1  0  0  0  0
 14 15  2  0  0  0  0
 15 16  1  0  0  0  0
 16 17  2  0  0  0  0
 17 18  1  0  0  0  0
M  END
>  <DSSTox_RID>
20719

>  <DSSTox_CID>
719

>  <DSSTox_Generic_SID>
20719

>  <DSSTox_FileID>
752_CPDBAS_v5d

>  <STRUCTURE_Formula>
C15H13NO2

>  <STRUCTURE_MolecularWeight>
239.2732

>  <STRUCTURE_ChemicalType>
defined organic

>  <STRUCTURE_TestedForm_DefinedOrganic>
parent

>  <STRUCTURE_Shown>
tested chemical

>  <TestSubstance_ChemicalName>
N-Hydroxy-2-acetylaminofluorene

>  <TestSubstance_CASRN>
53-95-2

>  <TestSubstance_Description>
single chemical compound

>  <STRUCTURE_ChemicalName_IUPAC>
N-9H-fluoren-2-yl-N-hydroxyacetamide

>  <STRUCTURE_SMILES>
CC(=O)N(O)C1=CC2=C(C=C1)C3=CC=CC=C3C2

>  <STRUCTURE_Parent_SMILES>
CC(=O)N(O)C1=CC2=C(C=C1)C3=CC=CC=C3C2

>  <STRUCTURE_InChI>
InChI=1/C15H13NO2/c1-10(17)16(18)13-6-7-15-12(9-13)8-11-4-2-3-5-14(11)15/h2-7,9,18H,8H2,1H3

>  <STRUCTURE_InChIKey>
SOKUIEGXJHVFDV-UHFFFAOYAI

>  <StudyType>
Carcinogenicity

>  <Endpoint>
TD50; Tumor Target Sites

>  <Species>
rat; mouse; hamster

>  <ActivityOutcome_CPDBAS_Mutagenicity>
active

>  <TD50_Rat_mg>
0.988

>  <TD50_Rat_mmol>
0.00413

>  <ActivityScore_CPDBAS_Rat>
50

>  <TD50_Rat_Note>
TD50 is harmonic mean of more than one positive test

>  <TargetSites_Rat_Male>
liver

>  <TargetSites_Rat_Female>
liver

>  <ActivityOutcome_CPDBAS_Rat>
active

>  <TD50_Mouse_mg>
6.23

>  <TD50_Mouse_mmol>
0.026

>  <ActivityScore_CPDBAS_Mouse>
46

>  <TargetSites_Mouse_Female>
esophagus; kidney; liver; stomach; urinary bladder

>  <ActivityOutcome_CPDBAS_Mouse>
active

>  <TD50_Hamster_mg>
2.1

>  <TD50_Hamster_mmol>
0.00878

>  <ActivityScore_CPDBAS_Hamster>
76

>  <TargetSites_Hamster_Male>
liver; stomach

>  <ActivityOutcome_CPDBAS_Hamster>
active

>  <ActivityOutcome_CPDBAS_SingleCellCall>
active

>  <ActivityOutcome_CPDBAS_MultiCellCall>
active

>  <ActivityOutcome_CPDBAS_MultiCellCall_Details>
multisite active; multisex active; multispecies active

>  <ChemicalPage_URL>
http://potency.berkeley.edu/chempages/N-HYDROXY-2-ACETYLAMINOFLUORENE.html

$$$$



 14 15  0  0  0  0  0  0  0  0999 V2000
    3.9879   -2.3050    0.0000 C   0  0  0  0  0  0  0  0  0  0  0  0
    2.6559   -2.3050    0.0000 C   0  0  0  0  0  0  0  0  0  0  0  0
    1.9939   -3.4535    0.0000 C   0  0  0  0  0  0  0  0  0  0  0  0
    0.6620   -3.4535    0.0000 C   0  0  0  0  0  0  0  0  0  0  0  0
    0.0000   -2.3050    0.0000 C   0  0  0  0  0  0  0  0  0  0  0  0
    0.6620   -1.1485    0.0000 C   0  0  0  0  0  0  0  0  0  0  0  0
    1.9939   -1.1485    0.0000 C   0  0  0  0  0  0  0  0  0  0  0  0
    4.6499   -1.1485    0.0000 C   0  0  0  0  0  0  0  0  0  0  0  0
    5.9818   -1.1485    0.0000 C   0  0  0  0  0  0  0  0  0  0  0  0
    6.6438   -2.3050    0.0000 C   0  0  0  0  0  0  0  0  0  0  0  0
    5.9818   -3.4535    0.0000 C   0  0  0  0  0  0  0  0  0  0  0  0
    4.6499   -3.4535    0.0000 C   0  0  0  0  0  0  0  0  0  0  0  0
    7.9757   -2.3050    0.0000 N   0  0  0  0  0  0  0  0  0  0  0  0
    6.6438    0.0000    0.0000 O   0  0  0  0  0  0  0  0  0  0  0  0
  1  2  1  0  0  0  0
  1  8  2  0  0  0  0
  1 12  1  0  0  0  0
  2  3  2  0  0  0  0
  2  7  1  0  0  0  0
  3  4  1  0  0  0  0
  4  5  2  0  0  0  0
  5  6  1  0  0  0  0
  6  7  2  0  0  0  0
  8  9  1  0  0  0  0
  9 10  2  0  0  0  0
  9 14  1  0  0  0  0
 10 11  1  0  0  0  0
 10 13  1  0  0  0  0
 11 12  2  0  0  0  0
M  END
>  <DSSTox_RID>
20720

>  <DSSTox_CID>
720

>  <DSSTox_Generic_SID>
20720

>  <DSSTox_FileID>
753_CPDBAS_v5d

>  <STRUCTURE_Formula>
C12H11NO

>  <STRUCTURE_MolecularWeight>
185.225

>  <STRUCTURE_ChemicalType>
defined organic

>  <STRUCTURE_TestedForm_DefinedOrganic>
parent

>  <STRUCTURE_Shown>
tested chemical

>  <TestSubstance_ChemicalName>
3-Hydroxy-4-aminobiphenyl

>  <TestSubstance_CASRN>
4363-03-5

>  <TestSubstance_Description>
single chemical compound

>  <STRUCTURE_ChemicalName_IUPAC>
4-aminobiphenyl-3-ol

>  <STRUCTURE_SMILES>
C1(C2=CC=CC=C2)=CC(=C(C=C1)N)O

>  <STRUCTURE_Parent_SMILES>
C1(C2=CC=CC=C2)=CC(=C(C=C1)N)O

>  <STRUCTURE_InChI>
InChI=1/C12H11NO/c13-11-7-6-10(8-12(11)14)9-4-2-1-3-5-9/h1-8,14H,13H2

>  <STRUCTURE_InChIKey>
ILGJVPVZCNNBKI-UHFFFAOYAO

>  <StudyType>
Carcinogenicity

>  <Endpoint>
TD50; Tumor Target Sites

>  <Species>
rat

>  <ActivityScore_CPDBAS_Rat>
0

>  <TD50_Rat_Note>
no positive results

>  <TargetSites_Rat_Female>
no positive results

>  <ActivityOutcome_CPDBAS_Rat>
inactive

>  <ActivityOutcome_CPDBAS_SingleCellCall>
inactive

>  <ChemicalPage_URL>
http://potency.berkeley.edu/chempages/3-HYDROXY-4-AMINOBIPHENYL.html

$$$$



 16 16  0  0  0  0  0  0  0  0999 V2000
    8.0640   -1.9929    0.0000 O   0  0  0  0  0  0  0  0  0  0  0  0
    8.0640   -0.6682    0.0000 C   0  0  0  0  0  0  0  0  0  0  0  0
    6.9120    0.0000    0.0000 N   0  0  0  0  0  0  0  0  0  0  0  0
    5.7600   -0.6682    0.0000 C   0  0  0  0  0  0  0  0  0  0  0  0
    5.7600   -1.9929    0.0000 C   0  0  0  0  0  0  0  0  0  0  0  0
    4.6080   -2.6611    0.0000 C   0  0  0  0  0  0  0  0  0  0  0  0
    3.4560   -1.9929    0.0000 C   0  0  0  0  0  0  0  0  0  0  0  0
    3.4560   -0.6682    0.0000 C   0  0  0  0  0  0  0  0  0  0  0  0
    4.6080    0.0000    0.0000 C   0  0  0  0  0  0  0  0  0  0  0  0
    2.3040   -2.6611    0.0000 O   0  0  0  0  0  0  0  0  0  0  0  0
    1.1520   -1.9929    0.0000 C   0  0  0  0  0  0  0  0  0  0  0  0
    0.0000   -2.6611    0.0000 C   0  0  0  0  0  0  0  0  0  0  0  0
    9.2159    0.0000    0.0000 C   0  0  0  0  0  0  0  0  0  0  0  0
   10.3679   -0.6682    0.0000 C   0  0  3  0  0  0  0  0  0  0  0  0
   11.5199    0.0000    0.0000 C   0  0  0  0  0  0  0  0  0  0  0  0
   10.3679   -1.9929    0.0000 O   0  0  0  0  0  0  0  0  0  0  0  0
  1  2  2  0  0  0  0
  2  3  1  0  0  0  0
  2 13  1  0  0  0  0
  3  4  1  0  0  0  0
  4  5  2  0  0  0  0
  4  9  1  0  0  0  0
  5  6  1  0  0  0  0
  6  7  2  0  0  0  0
  7  8  1  0  0  0  0
  7 10  1  0  0  0  0
  8  9  2  0  0  0  0
 10 11  1  0  0  0  0
 11 12  1  0  0  0  0
 13 14  1  0  0  0  0
 14 15  1  0  0  0  0
 14 16  1  0  0  0  0
M  END
>  <DSSTox_RID>
20721

>  <DSSTox_CID>
721

>  <DSSTox_Generic_SID>
20721

>  <DSSTox_FileID>
754_CPDBAS_v5d

>  <STRUCTURE_Formula>
C12H17NO3

>  <STRUCTURE_MolecularWeight>
223.2712

>  <STRUCTURE_ChemicalType>
defined organic

>  <STRUCTURE_TestedForm_DefinedOrganic>
parent

>  <STRUCTURE_Shown>
tested chemical

>  <TestSubstance_ChemicalName>
3-Hydroxy-p-butyrophenetidide

>  <TestSubstance_CASRN>
1083-57-4

>  <TestSubstance_Description>
single chemical compound

>  <STRUCTURE_ChemicalName_IUPAC>
N-[4-(ethyloxy)phenyl]-3-hydroxybutanamide

>  <STRUCTURE_SMILES>
O=C(NC1=CC=C(C=C1)OCC)CC(C)O

>  <STRUCTURE_Parent_SMILES>
O=C(NC1=CC=C(C=C1)OCC)CC(C)O

>  <STRUCTURE_InChI>
InChI=1/C12H17NO3/c1-3-16-11-6-4-10(5-7-11)13-12(15)8-9(2)14/h4-7,9,14H,3,8H2,1-2H3,(H,13,15)/f/h13H

>  <STRUCTURE_InChIKey>
LIAWQASKBFCRNR-NDKGDYFDCE

>  <StudyType>
Carcinogenicity

>  <Endpoint>
TD50; Tumor Target Sites

>  <Species>
mouse

>  <TD50_Mouse_mg>
5530

>  <ActivityScore_CPDBAS_Mouse>
50

>  <TargetSites_Mouse_Male>
kidney

>  <TargetSites_Mouse_Female>
no positive results

>  <ActivityOutcome_CPDBAS_Mouse>
active

>  <ActivityOutcome_CPDBAS_SingleCellCall>
active

>  <ChemicalPage_URL>
http://potency.berkeley.edu/chempages/3-HYDROXY-p-BUTYROPHENETIDIDE.html

$$$$



 17 19  0  0  0  0  0  0  0  0999 V2000
    0.0000   -4.6546    0.0000 O   0  0  0  0  0  0  0  0  0  0  0  0
    1.1504   -3.9897    0.0000 C   0  0  0  0  0  0  0  0  0  0  0  0
    2.3007   -4.6546    0.0000 C   0  0  0  0  0  0  0  0  0  0  0  0
    2.3007   -5.9845    0.0000 C   0  0  0  0  0  0  0  0  0  0  0  0
    3.4577   -6.6495    0.0000 C   0  0  0  0  0  0  0  0  0  0  0  0
    4.6081   -5.9845    0.0000 C   0  0  0  0  0  0  0  0  0  0  0  0
    4.6081   -4.6546    0.0000 C   0  0  0  0  0  0  0  0  0  0  0  0
    3.4577   -3.9897    0.0000 C   0  0  0  0  0  0  0  0  0  0  0  0
    3.4577   -2.6598    0.0000 C   0  0  0  0  0  0  0  0  0  0  0  0
    4.6081   -1.9948    0.0000 O   0  0  0  0  0  0  0  0  0  0  0  0
    2.3007   -1.9948    0.0000 C   0  0  0  0  0  0  0  0  0  0  0  0
    1.1504   -2.6598    0.0000 C   0  0  0  0  0  0  0  0  0  0  0  0
    0.0000   -1.9948    0.0000 C   0  0  0  0  0  0  0  0  0  0  0  0
    0.0000   -0.6649    0.0000 C   0  0  0  0  0  0  0  0  0  0  0  0
    1.1504    0.0000    0.0000 C   0  0  0  0  0  0  0  0  0  0  0  0
    2.3007   -0.6649    0.0000 C   0  0  0  0  0  0  0  0  0  0  0  0
    1.1504   -6.6495    0.0000 O   0  0  0  0  0  0  0  0  0  0  0  0
  1  2  2  0  0  0  0
  2  3  1  0  0  0  0
  2 12  1  0  0  0  0
  3  4  2  0  0  0  0
  3  8  1  0  0  0  0
  4  5  1  0  0  0  0
  4 17  1  0  0  0  0
  5  6  2  0  0  0  0
  6  7  1  0  0  0  0
  7  8  2  0  0  0  0
  8  9  1  0  0  0  0
  9 10  2  0  0  0  0
  9 11  1  0  0  0  0
 11 12  2  0  0  0  0
 11 16  1  0  0  0  0
 12 13  1  0  0  0  0
 13 14  2  0  0  0  0
 14 15  1  0  0  0  0
 15 16  2  0  0  0  0
M  END
>  <DSSTox_RID>
20722

>  <DSSTox_CID>
722

>  <DSSTox_Generic_SID>
20722

>  <DSSTox_FileID>
755_CPDBAS_v5d

>  <STRUCTURE_Formula>
C14H8O3

>  <STRUCTURE_MolecularWeight>
224.2154

>  <STRUCTURE_ChemicalType>
defined organic

>  <STRUCTURE_TestedForm_DefinedOrganic>
parent

>  <STRUCTURE_Shown>
tested chemical

>  <TestSubstance_ChemicalName>
1-Hydroxyanthraquinone

>  <TestSubstance_CASRN>
129-43-1

>  <TestSubstance_Description>
single chemical compound

>  <STRUCTURE_ChemicalName_IUPAC>
1-hydroxyanthracene-9,10-dione

>  <STRUCTURE_SMILES>
O=C1C2=C(C=CC=C2C(=O)C3=C1C=CC=C3)O

>  <STRUCTURE_Parent_SMILES>
O=C1C2=C(C=CC=C2C(=O)C3=C1C=CC=C3)O

>  <STRUCTURE_InChI>
InChI=1/C14H8O3/c15-11-7-3-6-10-12(11)14(17)9-5-2-1-4-8(9)13(10)16/h1-7,15H

>  <STRUCTURE_InChIKey>
BTLXPCBPYBNQNR-UHFFFAOYAG

>  <StudyType>
Carcinogenicity

>  <Endpoint>
TD50; Tumor Target Sites

>  <Species>
rat

>  <TD50_Rat_mg>
93.5

>  <TD50_Rat_mmol>
0.417

>  <ActivityScore_CPDBAS_Rat>
30

>  <TD50_Rat_Note>
TD50 is harmonic mean of more than one positive test

>  <TargetSites_Rat_Male>
large intestine; liver; stomach

>  <ActivityOutcome_CPDBAS_Rat>
active

>  <ActivityOutcome_CPDBAS_SingleCellCall>
active

>  <ActivityOutcome_CPDBAS_MultiCellCall>
active

>  <ActivityOutcome_CPDBAS_MultiCellCall_Details>
multisite active

>  <Note_CPDBAS>
TD50_Rat modified v2a

>  <ChemicalPage_URL>
http://potency.berkeley.edu/chempages/1-HYDROXYANTHRAQUINONE.html

$$$$



 12 12  0  0  0  0  0  0  0  0999 V2000
    0.0000   -2.3040    0.0000 C   0  0  0  0  0  0  0  0  0  0  0  0
    1.3314   -2.3040    0.0000 C   0  0  0  0  0  0  0  0  0  0  0  0
    1.9931   -1.1560    0.0000 C   0  0  3  0  0  0  0  0  0  0  0  0
    3.3245   -1.1560    0.0000 C   0  0  0  0  0  0  0  0  0  0  0  0
    3.9862    0.0000    0.0000 C   0  0  0  0  0  0  0  0  0  0  0  0
    5.3175    0.0000    0.0000 C   0  0  0  0  0  0  0  0  0  0  0  0
    5.9793   -1.1560    0.0000 C   0  0  0  0  0  0  0  0  0  0  0  0
    5.3175   -2.3040    0.0000 C   0  0  0  0  0  0  0  0  0  0  0  0
    3.9862   -2.3040    0.0000 C   0  0  0  0  0  0  0  0  0  0  0  0
    7.3106   -1.1560    0.0000 O   0  0  0  0  0  0  0  0  0  0  0  0
    7.9723    0.0000    0.0000 C   0  0  0  0  0  0  0  0  0  0  0  0
    1.3314    0.0000    0.0000 O   0  0  0  0  0  0  0  0  0  0  0  0
  1  2  2  0  0  0  0
  2  3  1  0  0  0  0
  3  4  1  0  0  0  0
  3 12  1  0  0  0  0
  4  5  2  0  0  0  0
  4  9  1  0  0  0  0
  5  6  1  0  0  0  0
  6  7  2  0  0  0  0
  7  8  1  0  0  0  0
  7 10  1  0  0  0  0
  8  9  2  0  0  0  0
 10 11  1  0  0  0  0
M  END
>  <DSSTox_RID>
20723

>  <DSSTox_CID>
723

>  <DSSTox_Generic_SID>
20723

>  <DSSTox_FileID>
756_CPDBAS_v5d

>  <STRUCTURE_Formula>
C10H12O2

>  <STRUCTURE_MolecularWeight>
164.2036

>  <STRUCTURE_ChemicalType>
defined organic

>  <STRUCTURE_TestedForm_DefinedOrganic>
parent

>  <STRUCTURE_Shown>
tested chemical

>  <TestSubstance_ChemicalName>
1'-Hydroxyestragole

>  <TestSubstance_CASRN>
51410-44-7

>  <TestSubstance_Description>
single chemical compound

>  <STRUCTURE_ChemicalName_IUPAC>
1-[4-(methyloxy)phenyl]prop-2-en-1-ol

>  <STRUCTURE_SMILES>
C=CC(C1=CC=C(C=C1)OC)O

>  <STRUCTURE_Parent_SMILES>
C=CC(C1=CC=C(C=C1)OC)O

>  <STRUCTURE_InChI>
InChI=1/C10H12O2/c1-3-10(11)8-4-6-9(12-2)7-5-8/h3-7,10-11H,1H2,2H3

>  <STRUCTURE_InChIKey>
RUPMSBPCFQDMAY-UHFFFAOYAV

>  <StudyType>
Carcinogenicity

>  <Endpoint>
TD50; Tumor Target Sites

>  <Species>
mouse

>  <ActivityOutcome_CPDBAS_Mutagenicity>
inactive

>  <TD50_Mouse_mg>
57.8

>  <TD50_Mouse_mmol>
0.352

>  <ActivityScore_CPDBAS_Mouse>
33

>  <TargetSites_Mouse_Female>
liver

>  <ActivityOutcome_CPDBAS_Mouse>
active

>  <ActivityOutcome_CPDBAS_SingleCellCall>
active

>  <ChemicalPage_URL>
http://potency.berkeley.edu/chempages/1'-HYDROXYESTRAGOLE.html

$$$$



 19 20  0  0  0  0  0  0  0  0999 V2000
    6.9336   -1.6754    0.0000 N   0  0  0  0  0  0  0  0  0  0  0  0
    7.2171   -2.9771    0.0000 C   0  0  0  0  0  0  0  0  0  0  0  0
    8.4801   -3.3895    0.0000 C   0  0  0  0  0  0  0  0  0  0  0  0
    9.5627   -2.6033    0.0000 O   0  0  0  0  0  0  0  0  0  0  0  0
   10.6323   -3.3895    0.0000 C   0  0  0  0  0  0  0  0  0  0  0  0
   10.2199   -4.6525    0.0000 C   0  0  0  0  0  0  0  0  0  0  0  0
    8.8925   -4.6525    0.0000 C   0  0  0  0  0  0  0  0  0  0  0  0
   11.8953   -2.9771    0.0000 N   0  3  0  0  0  0  0  0  0  0  0  0
   12.8877   -3.8663    0.0000 O   0  0  0  0  0  0  0  0  0  0  0  0
   12.1789   -1.6754    0.0000 O   0  5  0  0  0  0  0  0  0  0  0  0
    5.6706   -1.2630    0.0000 N   0  0  0  0  0  0  0  0  0  0  0  0
    4.6009   -2.0491    0.0000 C   0  0  0  0  0  0  0  0  0  0  0  0
    4.6009   -3.3766    0.0000 O   0  0  0  0  0  0  0  0  0  0  0  0
    3.5183   -1.2630    0.0000 N   0  0  0  0  0  0  0  0  0  0  0  0
    3.9307    0.0000    0.0000 C   0  0  0  0  0  0  0  0  0  0  0  0
    5.2582    0.0000    0.0000 C   0  0  0  0  0  0  0  0  0  0  0  0
    2.2553   -1.6754    0.0000 C   0  0  0  0  0  0  0  0  0  0  0  0
    1.2630   -0.7861    0.0000 C   0  0  0  0  0  0  0  0  0  0  0  0
    0.0000   -1.1986    0.0000 O   0  0  0  0  0  0  0  0  0  0  0  0
  1  2  2  0  0  0  0
  1 11  1  0  0  0  0
  2  3  1  0  0  0  0
  3  4  1  0  0  0  0
  3  7  2  0  0  0  0
  4  5  1  0  0  0  0
  5  6  2  0  0  0  0
  5  8  1  0  0  0  0
  6  7  1  0  0  0  0
  8  9  2  0  0  0  0
  8 10  1  0  0  0  0
 11 12  1  0  0  0  0
 11 16  1  0  0  0  0
 12 13  2  0  0  0  0
 12 14  1  0  0  0  0
 14 15  1  0  0  0  0
 14 17  1  0  0  0  0
 15 16  1  0  0  0  0
 17 18  1  0  0  0  0
 18 19  1  0  0  0  0
M  END
>  <DSSTox_RID>
20724

>  <DSSTox_CID>
724

>  <DSSTox_Generic_SID>
20724

>  <DSSTox_FileID>
757_CPDBAS_v5d

>  <STRUCTURE_Formula>
C10H12N4O5

>  <STRUCTURE_MolecularWeight>
268.2286

>  <STRUCTURE_ChemicalType>
defined organic

>  <STRUCTURE_TestedForm_DefinedOrganic>
parent

>  <STRUCTURE_Shown>
tested chemical

>  <TestSubstance_ChemicalName>
1-(2-Hydroxyethyl)-3-[(5-nitrofurfurylidene)amino]-2-imidazolidinone

>  <TestSubstance_CASRN>
5036-03-3

>  <TestSubstance_Description>
single chemical compound

>  <STRUCTURE_ChemicalName_IUPAC>
1-(2-hydroxyethyl)-3-{[(E)-(5-nitrofuran-2-yl)methylidene]amino}imidazolidin-2-one

>  <STRUCTURE_SMILES>
O=[N+]([O-])C1=CC=C(O1)/C=N/N2C(N(CCO)CC2)=O

>  <STRUCTURE_Parent_SMILES>
O=[N+]([O-])C1=CC=C(O1)/C=N/N2C(N(CCO)CC2)=O

>  <STRUCTURE_InChI>
InChI=1/C10H12N4O5/c15-6-5-12-3-4-13(10(12)16)11-7-8-1-2-9(19-8)14(17)18/h1-2,7,15H,3-6H2/b11-7+

>  <STRUCTURE_InChIKey>
VDDRCCQKLVNYHQ-YRNVUSSQBR

>  <StudyType>
Carcinogenicity

>  <Endpoint>
TD50; Tumor Target Sites

>  <Species>
rat

>  <ActivityOutcome_CPDBAS_Mutagenicity>
active

>  <TD50_Rat_mg>
16.7

>  <TD50_Rat_mmol>
0.0623

>  <ActivityScore_CPDBAS_Rat>
38

>  <TargetSites_Rat_Female>
mammary gland

>  <ActivityOutcome_CPDBAS_Rat>
active

>  <ActivityOutcome_CPDBAS_SingleCellCall>
active

>  <Note_CPDBAS>
structure modified v5b

>  <ChemicalPage_URL>
http://potency.berkeley.edu/chempages/1-(2-HYDROXYETHYL)-3-[(5-NITROFURFURYLIDENE)AMINO].html

$$$$



 11 10  0  0  0  0  0  0  0  0999 V2000
    1.9929   -3.4531    0.0000 O   0  0  0  0  0  0  0  0  0  0  0  0
    2.6571   -2.3040    0.0000 C   0  0  0  0  0  0  0  0  0  0  0  0
    1.9929   -1.1490    0.0000 N   0  0  0  0  0  0  0  0  0  0  0  0
    0.6643   -1.1490    0.0000 C   0  0  0  0  0  0  0  0  0  0  0  0
    0.0000   -2.3040    0.0000 C   0  0  0  0  0  0  0  0  0  0  0  0
    0.6643   -3.4531    0.0000 O   0  0  0  0  0  0  0  0  0  0  0  0
    2.6571    0.0000    0.0000 N   0  0  0  0  0  0  0  0  0  0  0  0
    3.9917    0.0000    0.0000 O   0  0  0  0  0  0  0  0  0  0  0  0
    3.9917   -2.3040    0.0000 N   0  0  0  0  0  0  0  0  0  0  0  0
    4.6560   -3.4531    0.0000 C   0  0  0  0  0  0  0  0  0  0  0  0
    5.9845   -3.4531    0.0000 C   0  0  0  0  0  0  0  0  0  0  0  0
  1  2  2  0  0  0  0
  2  3  1  0  0  0  0
  2  9  1  0  0  0  0
  3  4  1  0  0  0  0
  3  7  1  0  0  0  0
  4  5  1  0  0  0  0
  5  6  1  0  0  0  0
  7  8  2  0  0  0  0
  9 10  1  0  0  0  0
 10 11  1  0  0  0  0
M  END
>  <DSSTox_RID>
20725

>  <DSSTox_CID>
725

>  <DSSTox_Generic_SID>
20725

>  <DSSTox_FileID>
758_CPDBAS_v5d

>  <STRUCTURE_Formula>
C5H11N3O3

>  <STRUCTURE_MolecularWeight>
161.1602

>  <STRUCTURE_ChemicalType>
defined organic

>  <STRUCTURE_TestedForm_DefinedOrganic>
parent

>  <STRUCTURE_Shown>
tested chemical

>  <TestSubstance_ChemicalName>
1-(2-Hydroxyethyl)-nitroso-3-ethylurea

>  <TestSubstance_CASRN>
96724-45-7

>  <TestSubstance_Description>
single chemical compound

>  <STRUCTURE_ChemicalName_IUPAC>
3-ethyl-1-(2-hydroxyethyl)-1-nitrosourea

>  <STRUCTURE_SMILES>
O=C(N(CCO)N=O)NCC

>  <STRUCTURE_Parent_SMILES>
O=C(N(CCO)N=O)NCC

>  <STRUCTURE_InChI>
InChI=1/C5H11N3O3/c1-2-6-5(10)8(7-11)3-4-9/h9H,2-4H2,1H3,(H,6,10)/f/h6H

>  <STRUCTURE_InChIKey>
WOEOEFXOZUBXMR-BRMMOCHJCV

>  <StudyType>
Carcinogenicity

>  <Endpoint>
TD50; Tumor Target Sites

>  <Species>
rat

>  <TD50_Rat_mg>
0.562

>  <TD50_Rat_mmol>
0.00349

>  <ActivityScore_CPDBAS_Rat>
51

>  <TD50_Rat_Note>
TD50 is harmonic mean of more than one positive test

>  <TargetSites_Rat_Male>
skin

>  <TargetSites_Rat_Female>
mammary gland

>  <ActivityOutcome_CPDBAS_Rat>
active

>  <ActivityOutcome_CPDBAS_SingleCellCall>
active

>  <ActivityOutcome_CPDBAS_MultiCellCall>
active

>  <ActivityOutcome_CPDBAS_MultiCellCall_Details>
multisite active; multisex active

>  <ChemicalPage_URL>
http://potency.berkeley.edu/chempages/1-(2-HYDROXYETHYL)-NITROSO-3-ETHYLUREA.html

$$$$



  9  8  0  0  0  0  0  0  0  0999 V2000
    1.1520    0.0000    0.0000 O   0  0  0  0  0  0  0  0  0  0  0  0
    2.3040   -0.6635    0.0000 C   0  0  0  0  0  0  0  0  0  0  0  0
    2.3040   -1.9953    0.0000 N   0  0  0  0  0  0  0  0  0  0  0  0
    3.4560   -2.6588    0.0000 C   0  0  0  0  0  0  0  0  0  0  0  0
    4.6080   -1.9953    0.0000 C   0  0  0  0  0  0  0  0  0  0  0  0
    4.6080   -0.6635    0.0000 O   0  0  0  0  0  0  0  0  0  0  0  0
    1.1520   -2.6588    0.0000 N   0  0  0  0  0  0  0  0  0  0  0  0
    0.0000   -1.9953    0.0000 O   0  0  0  0  0  0  0  0  0  0  0  0
    3.4560    0.0000    0.0000 N   0  0  0  0  0  0  0  0  0  0  0  0
  1  2  2  0  0  0  0
  2  3  1  0  0  0  0
  2  9  1  0  0  0  0
  3  4  1  0  0  0  0
  3  7  1  0  0  0  0
  4  5  1  0  0  0  0
  5  6  1  0  0  0  0
  7  8  2  0  0  0  0
M  END
>  <DSSTox_RID>
20726

>  <DSSTox_CID>
726

>  <DSSTox_Generic_SID>
20726

>  <DSSTox_FileID>
759_CPDBAS_v5d

>  <STRUCTURE_Formula>
C3H7N3O3

>  <STRUCTURE_MolecularWeight>
133.1066

>  <STRUCTURE_ChemicalType>
defined organic

>  <STRUCTURE_TestedForm_DefinedOrganic>
parent

>  <STRUCTURE_Shown>
tested chemical

>  <TestSubstance_ChemicalName>
1-(2-Hydroxyethyl)-1-nitrosourea

>  <TestSubstance_CASRN>
13743-07-2

>  <TestSubstance_Description>
single chemical compound

>  <STRUCTURE_ChemicalName_IUPAC>
1-(2-hydroxyethyl)-1-nitrosourea

>  <STRUCTURE_SMILES>
O=C(N(CCO)N=O)N

>  <STRUCTURE_Parent_SMILES>
O=C(N(CCO)N=O)N

>  <STRUCTURE_InChI>
InChI=1/C3H7N3O3/c4-3(8)6(5-9)1-2-7/h7H,1-2H2,(H2,4,8)/f/h4H2

>  <STRUCTURE_InChIKey>
IVEXWRHLJIZLHF-LGEMBHMGCO

>  <StudyType>
Carcinogenicity

>  <Endpoint>
TD50; Tumor Target Sites

>  <Species>
rat; mouse

>  <ActivityOutcome_CPDBAS_Mutagenicity>
active

>  <TD50_Rat_mg>
0.244

>  <TD50_Rat_mmol>
0.00183

>  <ActivityScore_CPDBAS_Rat>
54

>  <TD50_Rat_Note>
TD50 is harmonic mean of more than one positive test; greater than ten-fold variation among TD50 values for positive results

>  <TargetSites_Rat_Male>
bone; hematopoietic system; kidney; large intestine; lung; mammary gland; stomach

>  <TargetSites_Rat_Female>
hematopoietic system; mammary gland

>  <ActivityOutcome_CPDBAS_Rat>
active

>  <TD50_Mouse_mg>
0.818

>  <TD50_Mouse_mmol>
0.00615

>  <ActivityScore_CPDBAS_Mouse>
53

>  <TD50_Mouse_Note>
TD50 is harmonic mean of more than one positive test

>  <TargetSites_Mouse_Male>
hematopoietic system

>  <TargetSites_Mouse_Female>
hematopoietic system

>  <ActivityOutcome_CPDBAS_Mouse>
active

>  <ActivityOutcome_CPDBAS_SingleCellCall>
active

>  <ActivityOutcome_CPDBAS_MultiCellCall>
active

>  <ActivityOutcome_CPDBAS_MultiCellCall_Details>
multisite active; multisex active; multispecies active

>  <Note_CPDBAS>
TD50_Rat modified v2a

>  <ChemicalPage_URL>
http://potency.berkeley.edu/chempages/1-(2-HYDROXYETHYL)-1-NITROSOUREA.html

$$$$



 22 24  0  0  0  0  0  0  0  0999 V2000
    6.5118   -4.6570    0.0000 N   0  0  0  0  0  0  0  0  0  0  0  0
    5.3650   -3.9889    0.0000 C   0  0  0  0  0  0  0  0  0  0  0  0
    5.3650   -2.6526    0.0000 N   0  0  0  0  0  0  0  0  0  0  0  0
    6.5118   -1.9944    0.0000 C   0  0  0  0  0  0  0  0  0  0  0  0
    7.6686   -2.6526    0.0000 C   0  0  0  0  0  0  0  0  0  0  0  0
    8.8154   -1.9944    0.0000 C   0  0  0  0  0  0  0  0  0  0  0  0
    9.9721   -2.6526    0.0000 C   0  0  0  0  0  0  0  0  0  0  0  0
    9.9721   -3.9889    0.0000 C   0  0  0  0  0  0  0  0  0  0  0  0
    8.8154   -4.6570    0.0000 C   0  0  0  0  0  0  0  0  0  0  0  0
    7.6686   -3.9889    0.0000 C   0  0  0  0  0  0  0  0  0  0  0  0
    6.5118   -0.6582    0.0000 N   0  0  0  0  0  0  0  0  0  0  0  0
    5.3650    0.0000    0.0000 C   0  0  0  0  0  0  0  0  0  0  0  0
    4.2082   -0.6582    0.0000 C   0  0  0  0  0  0  0  0  0  0  0  0
    3.0615    0.0000    0.0000 O   0  0  0  0  0  0  0  0  0  0  0  0
    4.2082   -4.6570    0.0000 C   0  0  0  0  0  0  0  0  0  0  0  0
    4.0686   -5.9733    0.0000 C   0  0  0  0  0  0  0  0  0  0  0  0
    2.7723   -6.2525    0.0000 C   0  0  0  0  0  0  0  0  0  0  0  0
    2.1041   -5.0958    0.0000 C   0  0  0  0  0  0  0  0  0  0  0  0
    2.9916   -4.1085    0.0000 S   0  0  0  0  0  0  0  0  0  0  0  0
    0.7778   -4.9661    0.0000 N   0  3  0  0  0  0  0  0  0  0  0  0
    0.0000   -6.0332    0.0000 O   0  0  0  0  0  0  0  0  0  0  0  0
    0.2393   -3.7495    0.0000 O   0  5  0  0  0  0  0  0  0  0  0  0
  1  2  1  0  0  0  0
  1 10  2  0  0  0  0
  2  3  2  0  0  0  0
  2 15  1  0  0  0  0
  3  4  1  0  0  0  0
  4  5  2  0  0  0  0
  4 11  1  0  0  0  0
  5  6  1  0  0  0  0
  5 10  1  0  0  0  0
  6  7  2  0  0  0  0
  7  8  1  0  0  0  0
  8  9  2  0  0  0  0
  9 10  1  0  0  0  0
 11 12  1  0  0  0  0
 12 13  1  0  0  0  0
 13 14  1  0  0  0  0
 15 16  2  0  0  0  0
 15 19  1  0  0  0  0
 16 17  1  0  0  0  0
 17 18  2  0  0  0  0
 18 19  1  0  0  0  0
 18 20  1  0  0  0  0
 20 21  2  0  0  0  0
 20 22  1  0  0  0  0
M  END
>  <DSSTox_RID>
20727

>  <DSSTox_CID>
727

>  <DSSTox_Generic_SID>
20727

>  <DSSTox_FileID>
760_CPDBAS_v5d

>  <STRUCTURE_Formula>
C14H12N4O3S

>  <STRUCTURE_MolecularWeight>
316.3338

>  <STRUCTURE_ChemicalType>
defined organic

>  <STRUCTURE_TestedForm_DefinedOrganic>
parent

>  <STRUCTURE_Shown>
tested chemical

>  <TestSubstance_ChemicalName>
4-(2-Hydroxyethylamino)-2-(5-nitro-2-thienyl)quinazoline

>  <TestSubstance_CASRN>
33389-36-5

>  <TestSubstance_Description>
single chemical compound

>  <STRUCTURE_ChemicalName_IUPAC>
2-{[2-(5-nitro-2-thienyl)quinazolin-4-yl]amino}ethanol

>  <STRUCTURE_SMILES>
OCCNC2=C1C=CC=CC1=NC(C3=CC=C([N+]([O-])=O)S3)=N2

>  <STRUCTURE_Parent_SMILES>
OCCNC2=C1C=CC=CC1=NC(C3=CC=C([N+]([O-])=O)S3)=N2

>  <STRUCTURE_InChI>
InChI=1/C14H12N4O3S/c19-8-7-15-13-9-3-1-2-4-10(9)16-14(17-13)11-5-6-12(22-11)18(20)21/h1-6,19H,7-8H2,(H,15,16,17)/f/h15H

>  <STRUCTURE_InChIKey>
QPLQHOGBXHYUEB-YAQRNVERCY

>  <StudyType>
Carcinogenicity

>  <Endpoint>
TD50; Tumor Target Sites

>  <Species>
rat

>  <ActivityOutcome_CPDBAS_Mutagenicity>
active

>  <TD50_Rat_mg>
1.87

>  <TD50_Rat_mmol>
0.00591

>  <ActivityScore_CPDBAS_Rat>
49

>  <TargetSites_Rat_Female>
all tumor bearing animals

>  <ActivityOutcome_CPDBAS_Rat>
active

>  <ActivityOutcome_CPDBAS_SingleCellCall>
active

>  <ChemicalPage_URL>
http://potency.berkeley.edu/chempages/4-(2-HYDROXYETHYLAMINO)-2-(5-NITRO-2-THIENYL)QUINA.html

$$$$



  5  4  0  0  0  0  0  0  0  0999 V2000
    0.0000   -0.6638    0.0000 O   0  0  0  0  0  0  0  0  0  0  0  0
    1.1525    0.0000    0.0000 C   0  0  0  0  0  0  0  0  0  0  0  0
    2.3050   -0.6638    0.0000 C   0  0  0  0  0  0  0  0  0  0  0  0
    3.4575    0.0000    0.0000 N   0  0  0  0  0  0  0  0  0  0  0  0
    4.6099   -0.6638    0.0000 N   0  0  0  0  0  0  0  0  0  0  0  0
  1  2  1  0  0  0  0
  2  3  1  0  0  0  0
  3  4  1  0  0  0  0
  4  5  1  0  0  0  0
M  END
>  <DSSTox_RID>
20728

>  <DSSTox_CID>
728

>  <DSSTox_Generic_SID>
20728

>  <DSSTox_FileID>
761_CPDBAS_v5d

>  <STRUCTURE_Formula>
C2H8N2O

>  <STRUCTURE_MolecularWeight>
76.098

>  <STRUCTURE_ChemicalType>
defined organic

>  <STRUCTURE_TestedForm_DefinedOrganic>
parent

>  <STRUCTURE_Shown>
tested chemical

>  <TestSubstance_ChemicalName>
2-Hydroxyethylhydrazine

>  <TestSubstance_CASRN>
109-84-2

>  <TestSubstance_Description>
single chemical compound

>  <STRUCTURE_ChemicalName_IUPAC>
2-hydrazinoethanol

>  <STRUCTURE_SMILES>
OCCNN

>  <STRUCTURE_Parent_SMILES>
OCCNN

>  <STRUCTURE_InChI>
InChI=1/C2H8N2O/c3-4-1-2-5/h4-5H,1-3H2

>  <STRUCTURE_InChIKey>
GBHCABUWWQUMAJ-UHFFFAOYAL

>  <StudyType>
Carcinogenicity

>  <Endpoint>
TD50; Tumor Target Sites

>  <Species>
mouse; hamster

>  <ActivityOutcome_CPDBAS_Mutagenicity>
active

>  <TD50_Mouse_mg>
0.397

>  <TD50_Mouse_mmol>
0.00522

>  <ActivityScore_CPDBAS_Mouse>
54

>  <TD50_Mouse_Note>
TD50 is harmonic mean of more than one positive test

>  <TargetSites_Mouse_Male>
liver

>  <TargetSites_Mouse_Female>
no positive results

>  <ActivityOutcome_CPDBAS_Mouse>
active

>  <ActivityScore_CPDBAS_Hamster>
0

>  <TD50_Hamster_Note>
no positive results

>  <TargetSites_Hamster_Male>
no positive results

>  <TargetSites_Hamster_Female>
no positive results

>  <ActivityOutcome_CPDBAS_Hamster>
inactive

>  <ActivityOutcome_CPDBAS_SingleCellCall>
active

>  <ChemicalPage_URL>
http://potency.berkeley.edu/chempages/2-HYDROXYETHYLHYDRAZINE.html

$$$$



 10  9  0  0  0  0  0  0  0  0999 V2000
    4.6062   -2.6601    0.0000 O   0  0  0  0  0  0  0  0  0  0  0  0
    3.4546   -1.9979    0.0000 C   0  0  0  0  0  0  0  0  0  0  0  0
    3.4546   -0.6679    0.0000 N   0  0  0  0  0  0  0  0  0  0  0  0
    2.3031    0.0000    0.0000 C   0  0  0  0  0  0  0  0  0  0  0  0
    1.1515   -0.6679    0.0000 C   0  0  0  0  0  0  0  0  0  0  0  0
    1.1515   -1.9979    0.0000 C   0  0  0  0  0  0  0  0  0  0  0  0
    0.0000   -2.6601    0.0000 O   0  0  0  0  0  0  0  0  0  0  0  0
    4.6062    0.0000    0.0000 N   0  0  0  0  0  0  0  0  0  0  0  0
    5.7577   -0.6679    0.0000 O   0  0  0  0  0  0  0  0  0  0  0  0
    2.3031   -2.6601    0.0000 N   0  0  0  0  0  0  0  0  0  0  0  0
  1  2  2  0  0  0  0
  2  3  1  0  0  0  0
  2 10  1  0  0  0  0
  3  4  1  0  0  0  0
  3  8  1  0  0  0  0
  4  5  1  0  0  0  0
  5  6  1  0  0  0  0
  6  7  1  0  0  0  0
  8  9  2  0  0  0  0
M  END
>  <DSSTox_RID>
20729

>  <DSSTox_CID>
729

>  <DSSTox_Generic_SID>
20729

>  <DSSTox_FileID>
762_CPDBAS_v5d

>  <STRUCTURE_Formula>
C4H9N3O3

>  <STRUCTURE_MolecularWeight>
147.1334

>  <STRUCTURE_ChemicalType>
defined organic

>  <STRUCTURE_TestedForm_DefinedOrganic>
parent

>  <STRUCTURE_Shown>
tested chemical

>  <TestSubstance_ChemicalName>
1-(3-Hydroxypropyl)-1-nitrosourea

>  <TestSubstance_CASRN>
71752-70-0

>  <TestSubstance_Description>
single chemical compound

>  <STRUCTURE_ChemicalName_IUPAC>
1-(3-hydroxypropyl)-1-nitrosourea

>  <STRUCTURE_SMILES>
O=C(N(CCCO)N=O)N

>  <STRUCTURE_Parent_SMILES>
O=C(N(CCCO)N=O)N

>  <STRUCTURE_InChI>
InChI=1/C4H9N3O3/c5-4(9)7(6-10)2-1-3-8/h8H,1-3H2,(H2,5,9)/f/h5H2

>  <STRUCTURE_InChIKey>
HDEPBBATNLJTLO-GLFQYTTQCG

>  <StudyType>
Carcinogenicity

>  <Endpoint>
TD50; Tumor Target Sites

>  <Species>
rat

>  <TD50_Rat_mg>
0.978

>  <TD50_Rat_mmol>
0.00665

>  <ActivityScore_CPDBAS_Rat>
48

>  <TD50_Rat_Note>
TD50 is harmonic mean of more than one positive test

>  <TargetSites_Rat_Male>
stomach

>  <TargetSites_Rat_Female>
stomach

>  <ActivityOutcome_CPDBAS_Rat>
active

>  <ActivityOutcome_CPDBAS_SingleCellCall>
active

>  <ActivityOutcome_CPDBAS_MultiCellCall>
active

>  <ActivityOutcome_CPDBAS_MultiCellCall_Details>
multisex active

>  <ChemicalPage_URL>
http://potency.berkeley.edu/chempages/1-(3-HYDROXYPROPYL)-1-NITROSOUREA.html

$$$$



 11 12  0  0  0  0  0  0  0  0999 V2000
    3.4555    0.0000    0.0000 O   0  0  0  0  0  0  0  0  0  0  0  0
    3.4555   -1.3315    0.0000 C   0  0  0  0  0  0  0  0  0  0  0  0
    4.6073   -1.9950    0.0000 C   0  0  0  0  0  0  0  0  0  0  0  0
    4.6073   -3.3265    0.0000 C   0  0  0  0  0  0  0  0  0  0  0  0
    3.4555   -3.9899    0.0000 C   0  0  0  0  0  0  0  0  0  0  0  0
    2.3037   -3.3265    0.0000 C   0  0  0  0  0  0  0  0  0  0  0  0
    1.1518   -3.9899    0.0000 C   0  0  0  0  0  0  0  0  0  0  0  0
    0.0000   -3.3265    0.0000 C   0  0  0  0  0  0  0  0  0  0  0  0
    0.0000   -1.9950    0.0000 C   0  0  0  0  0  0  0  0  0  0  0  0
    1.1518   -1.3315    0.0000 N   0  0  0  0  0  0  0  0  0  0  0  0
    2.3037   -1.9950    0.0000 C   0  0  0  0  0  0  0  0  0  0  0  0
  1  2  1  0  0  0  0
  2  3  2  0  0  0  0
  2 11  1  0  0  0  0
  3  4  1  0  0  0  0
  4  5  2  0  0  0  0
  5  6  1  0  0  0  0
  6  7  2  0  0  0  0
  6 11  1  0  0  0  0
  7  8  1  0  0  0  0
  8  9  2  0  0  0  0
  9 10  1  0  0  0  0
 10 11  2  0  0  0  0
M  END
>  <DSSTox_RID>
20730

>  <DSSTox_CID>
730

>  <DSSTox_Generic_SID>
20730

>  <DSSTox_FileID>
763_CPDBAS_v5d

>  <STRUCTURE_Formula>
C9H7NO

>  <STRUCTURE_MolecularWeight>
145.158

>  <STRUCTURE_ChemicalType>
defined organic

>  <STRUCTURE_TestedForm_DefinedOrganic>
parent

>  <STRUCTURE_Shown>
tested chemical

>  <TestSubstance_ChemicalName>
8-Hydroxyquinoline

>  <TestSubstance_CASRN>
148-24-3

>  <TestSubstance_Description>
single chemical compound

>  <STRUCTURE_ChemicalName_IUPAC>
quinolin-8-ol

>  <STRUCTURE_SMILES>
OC1=CC=CC2=CC=CN=C12

>  <STRUCTURE_Parent_SMILES>
OC1=CC=CC2=CC=CN=C12

>  <STRUCTURE_InChI>
InChI=1/C9H7NO/c11-8-5-1-3-7-4-2-6-10-9(7)8/h1-6,11H

>  <STRUCTURE_InChIKey>
MCJGNVYPOGVAJF-UHFFFAOYAG

>  <StudyType>
Carcinogenicity

>  <Endpoint>
TD50; Tumor Target Sites

>  <Species>
rat; mouse

>  <ActivityOutcome_CPDBAS_Mutagenicity>
active

>  <ActivityScore_CPDBAS_Rat>
0

>  <TD50_Rat_Note>
no positive results

>  <TargetSites_Rat_Male>
no positive results

>  <TargetSites_Rat_Female>
no positive results

>  <ActivityOutcome_CPDBAS_Rat>
inactive

>  <ActivityScore_CPDBAS_Mouse>
0

>  <TD50_Mouse_Note>
no positive results

>  <TargetSites_Mouse_Male>
no positive results

>  <TargetSites_Mouse_Female>
no positive results

>  <ActivityOutcome_CPDBAS_Mouse>
inactive

>  <ActivityOutcome_CPDBAS_SingleCellCall>
inactive

>  <ActivityOutcome_CPDBAS_MultiCellCall>
inactive

>  <ActivityOutcome_CPDBAS_MultiCellCall_Details>
multisex inactive; multispecies inactive

>  <NTP_TechnicalReport>
TR 276

>  <ChemicalPage_URL>
http://potency.berkeley.edu/chempages/8-HYDROXYQUINOLINE.html

$$$$



 13 14  0  0  0  0  0  0  0  0999 V2000
    6.0944   -3.4555    0.0000 O   0  0  0  0  0  0  0  0  0  0  0  0
    5.4301   -2.3037    0.0000 C   0  0  3  0  0  0  0  0  0  0  0  0
    6.0944   -1.1518    0.0000 C   0  0  0  0  0  0  0  0  0  0  0  0
    5.4301    0.0000    0.0000 C   0  0  0  0  0  0  0  0  0  0  0  0
    4.1016   -2.3037    0.0000 C   0  0  0  0  0  0  0  0  0  0  0  0
    3.4373   -3.4555    0.0000 C   0  0  0  0  0  0  0  0  0  0  0  0
    2.1026   -3.4555    0.0000 C   0  0  0  0  0  0  0  0  0  0  0  0
    1.4383   -2.3037    0.0000 C   0  0  0  0  0  0  0  0  0  0  0  0
    0.1402   -2.0294    0.0000 O   0  0  0  0  0  0  0  0  0  0  0  0
    0.0000   -0.7070    0.0000 C   0  0  0  0  0  0  0  0  0  0  0  0
    1.2128   -0.1645    0.0000 O   0  0  0  0  0  0  0  0  0  0  0  0
    2.1026   -1.1518    0.0000 C   0  0  0  0  0  0  0  0  0  0  0  0
    3.4373   -1.1518    0.0000 C   0  0  0  0  0  0  0  0  0  0  0  0
  1  2  1  0  0  0  0
  2  3  1  0  0  0  0
  2  5  1  0  0  0  0
  3  4  2  0  0  0  0
  5  6  2  0  0  0  0
  5 13  1  0  0  0  0
  6  7  1  0  0  0  0
  7  8  2  0  0  0  0
  8  9  1  0  0  0  0
  8 12  1  0  0  0  0
  9 10  1  0  0  0  0
 10 11  1  0  0  0  0
 11 12  1  0  0  0  0
 12 13  2  0  0  0  0
M  END
>  <DSSTox_RID>
20731

>  <DSSTox_CID>
731

>  <DSSTox_Generic_SID>
20731

>  <DSSTox_FileID>
764_CPDBAS_v5d

>  <STRUCTURE_Formula>
C10H10O3

>  <STRUCTURE_MolecularWeight>
178.1872

>  <STRUCTURE_ChemicalType>
defined organic

>  <STRUCTURE_TestedForm_DefinedOrganic>
parent

>  <STRUCTURE_Shown>
tested chemical

>  <TestSubstance_ChemicalName>
1'-Hydroxysafrole

>  <TestSubstance_CASRN>
5208-87-7

>  <TestSubstance_Description>
single chemical compound

>  <STRUCTURE_ChemicalName_IUPAC>
1-(1,3-benzodioxol-5-yl)prop-2-en-1-ol

>  <STRUCTURE_SMILES>
OC(C=C)C1=CC=C2OCOC2=C1

>  <STRUCTURE_Parent_SMILES>
OC(C=C)C1=CC=C2OCOC2=C1

>  <STRUCTURE_InChI>
InChI=1/C10H10O3/c1-2-8(11)7-3-4-9-10(5-7)13-6-12-9/h2-5,8,11H,1,6H2

>  <STRUCTURE_InChIKey>
VVBJNJFYBCLUAH-UHFFFAOYAL

>  <StudyType>
Carcinogenicity

>  <Endpoint>
TD50; Tumor Target Sites

>  <Species>
rat; mouse

>  <ActivityOutcome_CPDBAS_Mutagenicity>
inactive

>  <TD50_Rat_mg>
18.4

>  <TD50_Rat_mmol>
0.103

>  <ActivityScore_CPDBAS_Rat>
36

>  <TD50_Rat_Note>
TD50 is harmonic mean of more than one positive test

>  <TargetSites_Rat_Male>
liver; stomach

>  <ActivityOutcome_CPDBAS_Rat>
active

>  <TD50_Mouse_mg>
71.2

>  <TD50_Mouse_mmol>
0.4

>  <ActivityScore_CPDBAS_Mouse>
33

>  <TD50_Mouse_Note>
TD50 is harmonic mean of more than one positive test

>  <TargetSites_Mouse_Male>
vascular system

>  <TargetSites_Mouse_Female>
liver

>  <ActivityOutcome_CPDBAS_Mouse>
active

>  <ActivityOutcome_CPDBAS_SingleCellCall>
active

>  <ActivityOutcome_CPDBAS_MultiCellCall>
active

>  <ActivityOutcome_CPDBAS_MultiCellCall_Details>
multisite active; multisex active; multispecies active

>  <ChemicalPage_URL>
http://potency.berkeley.edu/chempages/1'-HYDROXYSAFROLE.html

$$$$



 15 15  0  0  0  0  0  0  0  0999 V2000
    2.3021    0.0000    0.0000 C   0  0  0  0  0  0  0  0  0  0  0  0
    2.3021   -1.3260    0.0000 C   0  0  3  0  0  0  0  0  0  0  0  0
    3.4531   -1.9890    0.0000 C   0  0  0  0  0  0  0  0  0  0  0  0
    4.6041   -1.3260    0.0000 C   0  0  0  0  0  0  0  0  0  0  0  0
    5.7552   -1.9890    0.0000 C   0  0  0  0  0  0  0  0  0  0  0  0
    5.7552   -3.3242    0.0000 C   0  0  0  0  0  0  0  0  0  0  0  0
    4.6041   -3.9872    0.0000 C   0  0  0  0  0  0  0  0  0  0  0  0
    3.4531   -3.3242    0.0000 C   0  0  0  0  0  0  0  0  0  0  0  0
    6.9062   -3.9872    0.0000 C   0  0  0  0  0  0  0  0  0  0  0  0
    8.0572   -3.3242    0.0000 C   0  0  0  0  0  0  0  0  0  0  0  0
    9.2083   -3.9872    0.0000 C   0  0  0  0  0  0  0  0  0  0  0  0
    8.0572   -1.9890    0.0000 C   0  0  0  0  0  0  0  0  0  0  0  0
    1.1510   -1.9890    0.0000 C   0  0  0  0  0  0  0  0  0  0  0  0
    1.1510   -3.3242    0.0000 O   0  0  0  0  0  0  0  0  0  0  0  0
    0.0000   -1.3260    0.0000 O   0  0  0  0  0  0  0  0  0  0  0  0
  1  2  1  0  0  0  0
  2  3  1  0  0  0  0
  2 13  1  0  0  0  0
  3  4  2  0  0  0  0
  3  8  1  0  0  0  0
  4  5  1  0  0  0  0
  5  6  2  0  0  0  0
  6  7  1  0  0  0  0
  6  9  1  0  0  0  0
  7  8  2  0  0  0  0
  9 10  1  0  0  0  0
 10 11  1  0  0  0  0
 10 12  1  0  0  0  0
 13 14  2  0  0  0  0
 13 15  1  0  0  0  0
M  END
>  <DSSTox_RID>
20732

>  <DSSTox_CID>
732

>  <DSSTox_Generic_SID>
20732

>  <DSSTox_FileID>
765_CPDBAS_v5d

>  <STRUCTURE_Formula>
C13H18O2

>  <STRUCTURE_MolecularWeight>
206.284

>  <STRUCTURE_ChemicalType>
defined organic

>  <STRUCTURE_TestedForm_DefinedOrganic>
parent

>  <STRUCTURE_Shown>
tested chemical

>  <TestSubstance_ChemicalName>
Ibuprofen

>  <TestSubstance_CASRN>
15687-27-1

>  <TestSubstance_Description>
single chemical compound

>  <STRUCTURE_ChemicalName_IUPAC>
2-[4-(2-methylpropyl)phenyl]propanoic acid

>  <STRUCTURE_SMILES>
CC(C1=CC=C(C=C1)CC(C)C)C(=O)O

>  <STRUCTURE_Parent_SMILES>
CC(C1=CC=C(C=C1)CC(C)C)C(=O)O

>  <STRUCTURE_InChI>
InChI=1/C13H18O2/c1-9(2)8-11-4-6-12(7-5-11)10(3)13(14)15/h4-7,9-10H,8H2,1-3H3,(H,14,15)/f/h14H

>  <STRUCTURE_InChIKey>
HEFNNWSXXWATRW-YHMJCDSICY

>  <StudyType>
Carcinogenicity

>  <Endpoint>
TD50; Tumor Target Sites

>  <Species>
rat

>  <ActivityScore_CPDBAS_Rat>
0

>  <TD50_Rat_Note>
no positive results

>  <TargetSites_Rat_Male>
no positive results

>  <ActivityOutcome_CPDBAS_Rat>
inactive

>  <ActivityOutcome_CPDBAS_SingleCellCall>
inactive

>  <ChemicalPage_URL>
http://potency.berkeley.edu/chempages/IBUPROFEN.html

$$$$



 19 20  0  0  0  0  0  0  0  0999 V2000
    4.6481   -4.6049    0.0000 C   0  0  0  0  0  0  0  0  0  0  0  0
    3.9915   -3.4558    0.0000 C   0  0  3  0  0  0  0  0  0  0  0  0
    4.6481   -2.2981    0.0000 C   0  0  0  0  0  0  0  0  0  0  0  0
    5.9785   -2.2981    0.0000 N   0  0  0  0  0  0  0  0  0  0  0  0
    6.6438   -1.1491    0.0000 C   0  0  0  0  0  0  0  0  0  0  0  0
    7.9743   -1.1491    0.0000 C   0  0  0  0  0  0  0  0  0  0  0  0
    8.6395    0.0000    0.0000 O   0  0  0  0  0  0  0  0  0  0  0  0
    8.6395   -2.2981    0.0000 N   0  0  0  0  0  0  0  0  0  0  0  0
    7.9743   -3.4558    0.0000 C   0  0  0  0  0  0  0  0  0  0  0  0
    8.6395   -4.6049    0.0000 O   0  0  0  0  0  0  0  0  0  0  0  0
    6.6438   -3.4558    0.0000 C   0  0  0  0  0  0  0  0  0  0  0  0
    2.6610   -3.4558    0.0000 N   0  0  0  0  0  0  0  0  0  0  0  0
    1.9957   -4.6049    0.0000 C   0  0  0  0  0  0  0  0  0  0  0  0
    0.6652   -4.6049    0.0000 C   0  0  0  0  0  0  0  0  0  0  0  0
    0.0000   -5.7539    0.0000 O   0  0  0  0  0  0  0  0  0  0  0  0
    0.0000   -3.4558    0.0000 N   0  0  0  0  0  0  0  0  0  0  0  0
    0.6652   -2.2981    0.0000 C   0  0  0  0  0  0  0  0  0  0  0  0
    0.0000   -1.1491    0.0000 O   0  0  0  0  0  0  0  0  0  0  0  0
    1.9957   -2.2981    0.0000 C   0  0  0  0  0  0  0  0  0  0  0  0
  1  2  1  0  0  0  0
  2  3  1  0  0  0  0
  2 12  1  0  0  0  0
  3  4  1  0  0  0  0
  4  5  1  0  0  0  0
  4 11  1  0  0  0  0
  5  6  1  0  0  0  0
  6  7  2  0  0  0  0
  6  8  1  0  0  0  0
  8  9  1  0  0  0  0
  9 10  2  0  0  0  0
  9 11  1  0  0  0  0
 12 13  1  0  0  0  0
 12 19  1  0  0  0  0
 13 14  1  0  0  0  0
 14 15  2  0  0  0  0
 14 16  1  0  0  0  0
 16 17  1  0  0  0  0
 17 18  2  0  0  0  0
 17 19  1  0  0  0  0
M  END
>  <DSSTox_RID>
20733

>  <DSSTox_CID>
733

>  <DSSTox_Generic_SID>
20733

>  <DSSTox_FileID>
766_CPDBAS_v5d

>  <STRUCTURE_Formula>
C11H16N4O4

>  <STRUCTURE_MolecularWeight>
268.2691

>  <STRUCTURE_ChemicalType>
defined organic

>  <STRUCTURE_TestedForm_DefinedOrganic>
parent

>  <STRUCTURE_Shown>
tested chemical

>  <TestSubstance_ChemicalName>
ICRF-159

>  <TestSubstance_CASRN>
21416-67-1

>  <TestSubstance_Description>
single chemical compound

>  <STRUCTURE_ChemicalName_IUPAC>
4,4'-propane-1,2-diyldipiperazine-2,6-dione

>  <STRUCTURE_SMILES>
C2C(=O)NC(=O)CN2CC(C)N1CC(=O)NC(=O)C1

>  <STRUCTURE_Parent_SMILES>
C2C(=O)NC(=O)CN2CC(C)N1CC(=O)NC(=O)C1

>  <STRUCTURE_InChI>
InChI=1/C11H16N4O4/c1-7(15-5-10(18)13-11(19)6-15)2-14-3-8(16)12-9(17)4-14/h7H,2-6H2,1H3,(H,12,16,17)(H,13,18,19)/f/h12-13H

>  <STRUCTURE_InChIKey>
BMKDZUISNHGIBY-BAINRFMOCN

>  <StudyType>
Carcinogenicity

>  <Endpoint>
TD50; Tumor Target Sites

>  <Species>
rat; mouse

>  <TD50_Rat_mg>
10.7

>  <TD50_Rat_mmol>
0.0399

>  <ActivityScore_CPDBAS_Rat>
40

>  <TD50_Rat_Note>
positive test results only by intraperitoneal or intravenous injection

>  <TargetSites_Rat_Male>
no positive results

>  <TargetSites_Rat_Female>
uterus

>  <ActivityOutcome_CPDBAS_Rat>
active

>  <TD50_Mouse_mg>
23.7

>  <TD50_Mouse_mmol>
0.0883

>  <ActivityScore_CPDBAS_Mouse>
40

>  <TD50_Mouse_Note>
positive test results only by intraperitoneal or intravenous injection

>  <TargetSites_Mouse_Male>
no positive results

>  <TargetSites_Mouse_Female>
hematopoietic system

>  <ActivityOutcome_CPDBAS_Mouse>
active

>  <ActivityOutcome_CPDBAS_SingleCellCall>
active

>  <ActivityOutcome_CPDBAS_MultiCellCall>
active

>  <ActivityOutcome_CPDBAS_MultiCellCall_Details>
multisite active; multispecies active

>  <Note_CPDBAS>
CPDB uses retired CAS [21416-87-5]

>  <NTP_TechnicalReport>
TR 78

>  <ChemicalPage_URL>
http://potency.berkeley.edu/chempages/ICRF-159.html

$$$$



 21 21  0  0  0  0  0  0  0  0999 V2000
    5.7748   -2.2334    0.0000 N   0  0  0  0  0  0  0  0  0  0  0  0
    3.5255   -1.7548    0.0000 N   0  0  0  0  0  0  0  0  0  0  0  0
    0.0000   -1.6910    0.0000 F   0  0  0  0  0  0  0  0  0  0  0  0
    1.6750   -2.5364    0.0000 F   0  0  0  0  0  0  0  0  0  0  0  0
    1.2762   -1.2602    0.0000 C   0  0  0  0  0  0  0  0  0  0  0  0
    2.5364   -0.8614    0.0000 C   0  0  0  0  0  0  0  0  0  0  0  0
    0.8455    0.0000    0.0000 F   0  0  0  0  0  0  0  0  0  0  0  0
    4.7857   -1.3400    0.0000 C   0  0  0  0  0  0  0  0  0  0  0  0
    5.0569   -0.0479    0.0000 N   0  0  0  0  0  0  0  0  0  0  0  0
    8.1198   -2.6003    0.0000 N   0  0  0  0  0  0  0  0  0  0  0  0
    7.0351   -1.8186    0.0000 C   0  0  0  0  0  0  0  0  0  0  0  0
    9.1886   -1.8186    0.0000 N   0  0  0  0  0  0  0  0  0  0  0  0
    7.4498   -0.5583    0.0000 C   0  0  0  0  0  0  0  0  0  0  0  0
    8.7739   -0.5583    0.0000 C   0  0  0  0  0  0  0  0  0  0  0  0
   10.4489   -2.2334    0.0000 C   0  0  0  0  0  0  0  0  0  0  0  0
   11.4539   -1.3400    0.0000 C   0  0  0  0  0  0  0  0  0  0  0  0
   12.7141   -1.7548    0.0000 C   0  0  0  0  0  0  0  0  0  0  0  0
   13.6872   -0.8614    0.0000 C   0  0  0  0  0  0  0  0  0  0  0  0
   14.9634   -1.2602    0.0000 C   0  0  0  0  0  0  0  0  0  0  0  0
   15.2346   -2.5684    0.0000 N   0  0  0  0  0  0  0  0  0  0  0  0
   15.9525   -0.3829    0.0000 O   0  0  0  0  0  0  0  0  0  0  0  0
  1  8  1  0  0  0  0
  1 11  1  0  0  0  0
  2  6  1  0  0  0  0
  2  8  1  0  0  0  0
  3  5  1  0  0  0  0
  4  5  1  0  0  0  0
  5  6  1  0  0  0  0
  5  7  1  0  0  0  0
  8  9  2  0  0  0  0
 10 11  2  0  0  0  0
 10 12  1  0  0  0  0
 11 13  1  0  0  0  0
 12 14  1  0  0  0  0
 12 15  1  0  0  0  0
 13 14  2  0  0  0  0
 15 16  1  0  0  0  0
 16 17  1  0  0  0  0
 17 18  1  0  0  0  0
 18 19  1  0  0  0  0
 19 20  1  0  0  0  0
 19 21  2  0  0  0  0
M  END
>  <DSSTox_RID>
20734

>  <DSSTox_CID>
734

>  <DSSTox_Generic_SID>
20734

>  <DSSTox_FileID>
767_CPDBAS_v5d

>  <STRUCTURE_Formula>
C11H17F3N6O

>  <STRUCTURE_MolecularWeight>
306.2875

>  <STRUCTURE_ChemicalType>
defined organic

>  <STRUCTURE_TestedForm_DefinedOrganic>
parent

>  <STRUCTURE_Shown>
tested chemical

>  <TestSubstance_ChemicalName>
3-((Imino((2,2,2-trifluoroethyl)amino)methyl)amino)1H-pyrazole-1-pentamide

>  <TestSubstance_CASRN>
84545-30-2

>  <TestSubstance_Description>
single chemical compound

>  <ChemicalNote>
tautomers

>  <STRUCTURE_ChemicalName_IUPAC>
5-[3-({imino[(2,2,2-trifluoroethyl)amino]methyl}amino)-1H-pyrazol-1-yl]pentanamide

>  <STRUCTURE_SMILES>
FC(F)(F)CNC(=N)Nc1ccn(CCCCC(N)=O)n1

>  <STRUCTURE_Parent_SMILES>
FC(F)(F)CNC(=N)Nc1ccn(CCCCC(N)=O)n1

>  <STRUCTURE_InChI>
InChI=1/C11H17F3N6O/c12-11(13,14)7-17-10(16)18-9-4-6-20(19-9)5-2-1-3-8(15)21/h4,6H,1-3,5,7H2,(H2,15,21)(H3,16,17,18,19)/f/h16-18H,15H2

>  <STRUCTURE_InChIKey>
ALCSGJCIESECFD-PFUAMLMJCV

>  <StudyType>
Carcinogenicity

>  <Endpoint>
TD50; Tumor Target Sites

>  <Species>
rat; mouse

>  <TD50_Rat_mg>
1170

>  <TD50_Rat_mmol>
3.82

>  <ActivityScore_CPDBAS_Rat>
20

>  <TD50_Rat_Note>
TD50 is harmonic mean of more than one positive test

>  <TargetSites_Rat_Male>
stomach

>  <TargetSites_Rat_Female>
stomach

>  <ActivityOutcome_CPDBAS_Rat>
active

>  <TD50_Mouse_mg>
565

>  <TD50_Mouse_mmol>
1.84

>  <ActivityScore_CPDBAS_Mouse>
25

>  <TD50_Mouse_Note>
TD50 is harmonic mean of more than one positive test

>  <TargetSites_Mouse_Male>
stomach

>  <TargetSites_Mouse_Female>
stomach

>  <ActivityOutcome_CPDBAS_Mouse>
active

>  <ActivityOutcome_CPDBAS_SingleCellCall>
active

>  <ActivityOutcome_CPDBAS_MultiCellCall>
active

>  <ActivityOutcome_CPDBAS_MultiCellCall_Details>
multisex active; multispecies active

>  <Note_CPDBAS>
Rat added v2a; Mouse added v2a

>  <ChemicalPage_URL>
http://potency.berkeley.edu/chempages/3-((IMINO((2,2,2-TRIFLUOROETHYL)AMINO)METHYL)AMINO.html

$$$$



  9 10  0  0  0  0  0  0  0  0999 V2000
    3.5678   -0.2561    0.0000 N   0  0  0  0  0  0  0  0  0  0  0  0
    4.3404   -1.3195    0.0000 C   0  0  0  0  0  0  0  0  0  0  0  0
    2.3004   -0.6597    0.0000 C   0  0  0  0  0  0  0  0  0  0  0  0
    2.3004   -2.0096    0.0000 C   0  0  0  0  0  0  0  0  0  0  0  0
    3.5678   -2.4132    0.0000 C   0  0  0  0  0  0  0  0  0  0  0  0
    1.1589    0.0000    0.0000 C   0  0  0  0  0  0  0  0  0  0  0  0
    1.1589   -2.6693    0.0000 C   0  0  0  0  0  0  0  0  0  0  0  0
    0.0000   -1.9922    0.0000 C   0  0  0  0  0  0  0  0  0  0  0  0
    0.0000   -0.6771    0.0000 C   0  0  0  0  0  0  0  0  0  0  0  0
  1  2  1  0  0  0  0
  1  3  1  0  0  0  0
  2  5  2  0  0  0  0
  3  4  2  0  0  0  0
  3  6  1  0  0  0  0
  4  7  1  0  0  0  0
  4  5  1  0  0  0  0
  6  9  2  0  0  0  0
  7  8  2  0  0  0  0
  8  9  1  0  0  0  0
M  END
>  <DSSTox_RID>
20737

>  <DSSTox_CID>
737

>  <DSSTox_Generic_SID>
20737

>  <DSSTox_FileID>
770_CPDBAS_v5d

>  <STRUCTURE_Formula>
C8H7N

>  <STRUCTURE_MolecularWeight>
117.1479

>  <STRUCTURE_ChemicalType>
defined organic

>  <STRUCTURE_TestedForm_DefinedOrganic>
parent

>  <STRUCTURE_Shown>
tested chemical

>  <TestSubstance_ChemicalName>
Indole

>  <TestSubstance_CASRN>
120-72-9

>  <TestSubstance_Description>
single chemical compound

>  <STRUCTURE_ChemicalName_IUPAC>
1H-indole

>  <STRUCTURE_SMILES>
c1cccc2N\C=C/c12

>  <STRUCTURE_Parent_SMILES>
c1cccc2N\C=C/c12

>  <STRUCTURE_InChI>
InChI=1/C8H7N/c1-2-4-8-7(3-1)5-6-9-8/h1-6,9H

>  <STRUCTURE_InChIKey>
SIKJAQJRHWYJAI-UHFFFAOYAI

>  <StudyType>
Carcinogenicity

>  <Endpoint>
TD50; Tumor Target Sites

>  <Species>
mouse

>  <ActivityScore_CPDBAS_Mouse>
0

>  <TD50_Mouse_Note>
no positive results

>  <TargetSites_Mouse_Female>
no positive results

>  <ActivityOutcome_CPDBAS_Mouse>
inactive

>  <ActivityOutcome_CPDBAS_SingleCellCall>
inactive

>  <Note_CPDBAS>
Mouse added v2a

>  <ChemicalPage_URL>
http://potency.berkeley.edu/chempages/INDOLE.html

$$$$



 13 14  0  0  0  0  0  0  0  0999 V2000
    6.5598   -1.0587    0.0000 O   0  0  0  0  0  0  0  0  0  0  0  0
    6.2164   -2.3392    0.0000 C   0  0  0  0  0  0  0  0  0  0  0  0
    7.1535   -3.2835    0.0000 O   0  0  0  0  0  0  0  0  0  0  0  0
    4.9502   -2.7541    0.0000 C   0  0  0  0  0  0  0  0  0  0  0  0
    3.9631   -1.8599    0.0000 C   0  0  0  0  0  0  0  0  0  0  0  0
    4.0990   -0.5365    0.0000 C   0  0  0  0  0  0  0  0  0  0  0  0
    2.8829    0.0000    0.0000 N   0  0  0  0  0  0  0  0  0  0  0  0
    1.9958   -0.9872    0.0000 C   0  0  0  0  0  0  0  0  0  0  0  0
    2.6611   -2.1389    0.0000 C   0  0  0  0  0  0  0  0  0  0  0  0
    1.9958   -3.2906    0.0000 C   0  0  0  0  0  0  0  0  0  0  0  0
    0.6653   -3.2906    0.0000 C   0  0  0  0  0  0  0  0  0  0  0  0
    0.0000   -2.1389    0.0000 C   0  0  0  0  0  0  0  0  0  0  0  0
    0.6653   -0.9872    0.0000 C   0  0  0  0  0  0  0  0  0  0  0  0
  1  2  1  0  0  0  0
  2  3  2  0  0  0  0
  2  4  1  0  0  0  0
  4  5  1  0  0  0  0
  5  6  2  0  0  0  0
  5  9  1  0  0  0  0
  6  7  1  0  0  0  0
  7  8  1  0  0  0  0
  8  9  2  0  0  0  0
  8 13  1  0  0  0  0
  9 10  1  0  0  0  0
 10 11  2  0  0  0  0
 11 12  1  0  0  0  0
 12 13  2  0  0  0  0
M  END
>  <DSSTox_RID>
20738

>  <DSSTox_CID>
738

>  <DSSTox_Generic_SID>
20738

>  <DSSTox_FileID>
771_CPDBAS_v5d

>  <STRUCTURE_Formula>
C10H9NO2

>  <STRUCTURE_MolecularWeight>
175.184

>  <STRUCTURE_ChemicalType>
defined organic

>  <STRUCTURE_TestedForm_DefinedOrganic>
parent

>  <STRUCTURE_Shown>
tested chemical

>  <TestSubstance_ChemicalName>
Indole-3-acetic acid

>  <TestSubstance_CASRN>
87-51-4

>  <TestSubstance_Description>
single chemical compound

>  <STRUCTURE_ChemicalName_IUPAC>
1H-indol-3-ylacetic acid

>  <STRUCTURE_SMILES>
OC(=O)CC1=CNC2=C1C=CC=C2

>  <STRUCTURE_Parent_SMILES>
OC(=O)CC1=CNC2=C1C=CC=C2

>  <STRUCTURE_InChI>
InChI=1/C10H9NO2/c12-10(13)5-7-6-11-9-4-2-1-3-8(7)9/h1-4,6,11H,5H2,(H,12,13)/f/h12H

>  <STRUCTURE_InChIKey>
SEOVTRFCIGRIMH-XWKXFZRBCL

>  <StudyType>
Carcinogenicity

>  <Endpoint>
TD50; Tumor Target Sites

>  <Species>
mouse

>  <ActivityOutcome_CPDBAS_Mutagenicity>
inactive

>  <ActivityScore_CPDBAS_Mouse>
0

>  <TD50_Mouse_Note>
no positive results

>  <TargetSites_Mouse_Male>
no positive results

>  <TargetSites_Mouse_Female>
no positive results

>  <ActivityOutcome_CPDBAS_Mouse>
inactive

>  <ActivityOutcome_CPDBAS_SingleCellCall>
inactive

>  <ActivityOutcome_CPDBAS_MultiCellCall>
inactive

>  <ActivityOutcome_CPDBAS_MultiCellCall_Details>
multisex inactive

>  <ChemicalPage_URL>
http://potency.berkeley.edu/chempages/INDOLE-3-ACETIC%20ACID.html

$$$$



 19 21  0  0  0  0  0  0  0  0999 V2000
    7.1239   -0.3699    0.0000 C   0  0  0  0  0  0  0  0  0  0  0  0
    8.2020   -1.1521    0.0000 C   0  0  0  0  0  0  0  0  0  0  0  0
    8.8678    0.0000    0.0000 C   0  0  0  0  0  0  0  0  0  0  0  0
    9.4174   -1.6911    0.0000 C   0  0  0  0  0  0  0  0  0  0  0  0
   10.5695   -1.0252    0.0000 O   0  0  0  0  0  0  0  0  0  0  0  0
    9.2800   -3.0123    0.0000 N   0  0  0  0  0  0  0  0  0  0  0  0
    7.9800   -3.2871    0.0000 C   0  0  0  0  0  0  0  0  0  0  0  0
    7.3141   -4.4392    0.0000 C   0  0  0  0  0  0  0  0  0  0  0  0
    5.9824   -4.4392    0.0000 C   0  0  0  0  0  0  0  0  0  0  0  0
    5.3165   -3.2871    0.0000 C   0  0  0  0  0  0  0  0  0  0  0  0
    5.9824   -2.1350    0.0000 C   0  0  0  0  0  0  0  0  0  0  0  0
    7.3141   -2.1350    0.0000 C   0  0  0  0  0  0  0  0  0  0  0  0
    3.9847   -3.2871    0.0000 C   0  0  0  0  0  0  0  0  0  0  0  0
    3.3294   -4.4392    0.0000 N   0  0  0  0  0  0  0  0  0  0  0  0
    1.9976   -4.4392    0.0000 N   0  0  0  0  0  0  0  0  0  0  0  0
    1.3318   -3.2871    0.0000 C   0  0  0  0  0  0  0  0  0  0  0  0
    0.0000   -3.2871    0.0000 O   0  0  0  0  0  0  0  0  0  0  0  0
    1.9976   -2.1350    0.0000 C   0  0  0  0  0  0  0  0  0  0  0  0
    3.3294   -2.1350    0.0000 C   0  0  0  0  0  0  0  0  0  0  0  0
  1  2  1  0  0  0  0
  2  3  1  0  0  0  0
  2  4  1  0  0  0  0
  2 12  1  0  0  0  0
  4  5  2  0  0  0  0
  4  6  1  0  0  0  0
  6  7  1  0  0  0  0
  7  8  1  0  0  0  0
  7 12  2  0  0  0  0
  8  9  2  0  0  0  0
  9 10  1  0  0  0  0
 10 11  2  0  0  0  0
 10 13  1  0  0  0  0
 11 12  1  0  0  0  0
 13 14  2  0  0  0  0
 13 19  1  0  0  0  0
 14 15  1  0  0  0  0
 15 16  1  0  0  0  0
 16 17  2  0  0  0  0
 16 18  1  0  0  0  0
 18 19  1  0  0  0  0
M  END
>  <DSSTox_RID>
20739

>  <DSSTox_CID>
739

>  <DSSTox_Generic_SID>
20739

>  <DSSTox_FileID>
772_CPDBAS_v5d

>  <STRUCTURE_Formula>
C14H15N3O2

>  <STRUCTURE_MolecularWeight>
257.2914

>  <STRUCTURE_ChemicalType>
defined organic

>  <STRUCTURE_TestedForm_DefinedOrganic>
parent

>  <STRUCTURE_Shown>
tested chemical

>  <TestSubstance_ChemicalName>
Indolidan

>  <TestSubstance_CASRN>
100643-96-7

>  <TestSubstance_Description>
single chemical compound

>  <STRUCTURE_ChemicalName_IUPAC>
3,3-dimethyl-5-(6-oxo-1,4,5,6-tetrahydropyridazin-3-yl)-1,3-dihydro-2H-indol-2-one

>  <STRUCTURE_SMILES>
O=C(NC2=C1C=C(C3=NNC(CC3)=O)C=C2)C1(C)C

>  <STRUCTURE_Parent_SMILES>
O=C(NC2=C1C=C(C3=NNC(CC3)=O)C=C2)C1(C)C

>  <STRUCTURE_InChI>
InChI=1/C14H15N3O2/c1-14(2)9-7-8(3-4-11(9)15-13(14)19)10-5-6-12(18)17-16-10/h3-4,7H,5-6H2,1-2H3,(H,15,19)(H,17,18)/f/h15,17H

>  <STRUCTURE_InChIKey>
LZCQFJKUAIWHRW-KJQBJTEXCY

>  <StudyType>
Carcinogenicity

>  <Endpoint>
TD50; Tumor Target Sites

>  <Species>
rat

>  <TD50_Rat_mg>
2.01

>  <TD50_Rat_mmol>
0.00781

>  <ActivityScore_CPDBAS_Rat>
47

>  <TD50_Rat_Note>
TD50 is harmonic mean of more than one positive test

>  <TargetSites_Rat_Male>
adrenal gland

>  <TargetSites_Rat_Female>
adrenal gland

>  <ActivityOutcome_CPDBAS_Rat>
active

>  <ActivityOutcome_CPDBAS_SingleCellCall>
active

>  <ActivityOutcome_CPDBAS_MultiCellCall>
active

>  <ActivityOutcome_CPDBAS_MultiCellCall_Details>
multisex active

>  <ChemicalPage_URL>
http://potency.berkeley.edu/chempages/INDOLIDAN.html

$$$$



 25 27  0  0  0  0  0  0  0  0999 V2000
    7.2522   -3.4100    0.0000 C   0  0  0  0  0  0  0  0  0  0  0  0
    6.0995   -4.0704    0.0000 C   0  0  0  0  0  0  0  0  0  0  0  0
    4.8868   -3.5301    0.0000 C   0  0  0  0  0  0  0  0  0  0  0  0
    3.9863   -4.5266    0.0000 C   0  0  0  0  0  0  0  0  0  0  0  0
    4.6587   -5.6793    0.0000 C   0  0  0  0  0  0  0  0  0  0  0  0
    3.9863   -6.8200    0.0000 C   0  0  0  0  0  0  0  0  0  0  0  0
    2.6655   -6.8200    0.0000 C   0  0  0  0  0  0  0  0  0  0  0  0
    1.9932   -5.6793    0.0000 C   0  0  0  0  0  0  0  0  0  0  0  0
    2.6655   -4.5266    0.0000 C   0  0  0  0  0  0  0  0  0  0  0  0
    0.6604   -5.6793    0.0000 O   0  0  0  0  0  0  0  0  0  0  0  0
    0.0000   -6.8200    0.0000 C   0  0  0  0  0  0  0  0  0  0  0  0
    5.9555   -5.3911    0.0000 N   0  0  0  0  0  0  0  0  0  0  0  0
    6.9520   -6.2917    0.0000 C   0  0  0  0  0  0  0  0  0  0  0  0
    6.6639   -7.5884    0.0000 O   0  0  0  0  0  0  0  0  0  0  0  0
    8.2128   -5.8714    0.0000 C   0  0  0  0  0  0  0  0  0  0  0  0
    8.4889   -4.5747    0.0000 C   0  0  0  0  0  0  0  0  0  0  0  0
    9.7497   -4.1664    0.0000 C   0  0  0  0  0  0  0  0  0  0  0  0
   10.7462   -5.0549    0.0000 C   0  0  0  0  0  0  0  0  0  0  0  0
   10.4701   -6.3517    0.0000 C   0  0  0  0  0  0  0  0  0  0  0  0
    9.1973   -6.7719    0.0000 C   0  0  0  0  0  0  0  0  0  0  0  0
   12.0070   -4.6467    0.0000 Cl  0  0  0  0  0  0  0  0  0  0  0  0
    4.5987   -2.2333    0.0000 C   0  0  0  0  0  0  0  0  0  0  0  0
    5.5472   -1.2968    0.0000 C   0  0  0  0  0  0  0  0  0  0  0  0
    5.1990    0.0000    0.0000 O   0  0  0  0  0  0  0  0  0  0  0  0
    6.8320   -1.6329    0.0000 O   0  0  0  0  0  0  0  0  0  0  0  0
  1  2  1  0  0  0  0
  2  3  2  0  0  0  0
  2 12  1  0  0  0  0
  3  4  1  0  0  0  0
  3 22  1  0  0  0  0
  4  5  2  0  0  0  0
  4  9  1  0  0  0  0
  5  6  1  0  0  0  0
  5 12  1  0  0  0  0
  6  7  2  0  0  0  0
  7  8  1  0  0  0  0
  8  9  2  0  0  0  0
  8 10  1  0  0  0  0
 10 11  1  0  0  0  0
 12 13  1  0  0  0  0
 13 14  2  0  0  0  0
 13 15  1  0  0  0  0
 15 16  2  0  0  0  0
 15 20  1  0  0  0  0
 16 17  1  0  0  0  0
 17 18  2  0  0  0  0
 18 19  1  0  0  0  0
 18 21  1  0  0  0  0
 19 20  2  0  0  0  0
 22 23  1  0  0  0  0
 23 24  2  0  0  0  0
 23 25  1  0  0  0  0
M  END
>  <DSSTox_RID>
20740

>  <DSSTox_CID>
740

>  <DSSTox_Generic_SID>
20740

>  <DSSTox_FileID>
773_CPDBAS_v5d

>  <STRUCTURE_Formula>
C19H16ClNO4

>  <STRUCTURE_MolecularWeight>
357.7876

>  <STRUCTURE_ChemicalType>
defined organic

>  <STRUCTURE_TestedForm_DefinedOrganic>
parent

>  <STRUCTURE_Shown>
tested chemical

>  <TestSubstance_ChemicalName>
Indomethacin

>  <TestSubstance_CASRN>
53-86-1

>  <TestSubstance_Description>
single chemical compound

>  <STRUCTURE_ChemicalName_IUPAC>
[1-(4-chlorobenzoyl)-5-methoxy-2-methyl-1H-indol-3-yl]acetic acid

>  <STRUCTURE_SMILES>
CC1=C(C2=C(C=CC(=C2)OC)N1C(=O)C3=CC=C(C=C3)Cl)CC(=O)O

>  <STRUCTURE_Parent_SMILES>
CC1=C(C2=C(C=CC(=C2)OC)N1C(=O)C3=CC=C(C=C3)Cl)CC(=O)O

>  <STRUCTURE_InChI>
InChI=1/C19H16ClNO4/c1-11-15(10-18(22)23)16-9-14(25-2)7-8-17(16)21(11)19(24)12-3-5-13(20)6-4-12/h3-9H,10H2,1-2H3,(H,22,23)/f/h22H

>  <STRUCTURE_InChIKey>
CGIGDMFJXJATDK-QWOVJGMICU

>  <StudyType>
Carcinogenicity

>  <Endpoint>
TD50; Tumor Target Sites

>  <Species>
rat

>  <ActivityOutcome_CPDBAS_Mutagenicity>
inactive

>  <TD50_Rat_mg>
1.15

>  <TD50_Rat_mmol>
0.00321

>  <ActivityScore_CPDBAS_Rat>
51

>  <TargetSites_Rat_Male>
no positive results

>  <TargetSites_Rat_Female>
mammary gland

>  <ActivityOutcome_CPDBAS_Rat>
active

>  <ActivityOutcome_CPDBAS_SingleCellCall>
active

>  <Note_CPDBAS>
TD50_Rat modified v2a; TD50_Rat modified v3a; TargetSites_Rat modified v3a

>  <ChemicalPage_URL>
http://potency.berkeley.edu/chempages/INDOMETHACIN.html

$$$$



  5  4  0  0  0  0  0  0  0  0999 V2000
    3.4567   -1.9945    0.0000 N   0  0  0  0  0  0  0  0  0  0  0  0
    2.3056   -1.3308    0.0000 C   0  0  0  0  0  0  0  0  0  0  0  0
    2.3056    0.0000    0.0000 O   0  0  0  0  0  0  0  0  0  0  0  0
    1.1511   -1.9945    0.0000 C   0  0  0  0  0  0  0  0  0  0  0  0
    0.0000   -1.3308    0.0000 I   0  0  0  0  0  0  0  0  0  0  0  0
  1  2  1  0  0  0  0
  2  3  2  0  0  0  0
  2  4  1  0  0  0  0
  4  5  1  0  0  0  0
M  END
>  <DSSTox_RID>
20742

>  <DSSTox_CID>
742

>  <DSSTox_Generic_SID>
20742

>  <DSSTox_FileID>
775_CPDBAS_v5d

>  <STRUCTURE_Formula>
C2H4INO

>  <STRUCTURE_MolecularWeight>
184.9642

>  <STRUCTURE_ChemicalType>
defined organic

>  <STRUCTURE_TestedForm_DefinedOrganic>
parent

>  <STRUCTURE_Shown>
tested chemical

>  <TestSubstance_ChemicalName>
Iodoacetamide

>  <TestSubstance_CASRN>
144-48-9

>  <TestSubstance_Description>
single chemical compound

>  <STRUCTURE_ChemicalName_IUPAC>
2-iodoacetamide

>  <STRUCTURE_SMILES>
NC(=O)CI

>  <STRUCTURE_Parent_SMILES>
NC(=O)CI

>  <STRUCTURE_InChI>
InChI=1/C2H4INO/c3-1-2(4)5/h1H2,(H2,4,5)/f/h4H2

>  <STRUCTURE_InChIKey>
PGLTVOMIXTUURA-LGEMBHMGCV

>  <StudyType>
Carcinogenicity

>  <Endpoint>
TD50; Tumor Target Sites

>  <Species>
rat

>  <ActivityScore_CPDBAS_Rat>
0

>  <TD50_Rat_Note>
no positive results

>  <TargetSites_Rat_Male>
no positive results

>  <ActivityOutcome_CPDBAS_Rat>
inactive

>  <ActivityOutcome_CPDBAS_SingleCellCall>
inactive

>  <ChemicalPage_URL>
http://potency.berkeley.edu/chempages/IODOACETAMIDE.html

$$$$



  4  3  0  0  0  0  0  0  0  0999 V2000
    1.9950    0.0000    0.0000 I   0  0  0  0  0  0  0  0  0  0  0  0
    1.3292   -1.1518    0.0000 C   0  0  0  0  0  0  0  0  0  0  0  0
    1.9950   -2.3037    0.0000 I   0  0  0  0  0  0  0  0  0  0  0  0
    0.0000   -1.1518    0.0000 I   0  0  0  0  0  0  0  0  0  0  0  0
  1  2  1  0  0  0  0
  2  3  1  0  0  0  0
  2  4  1  0  0  0  0
M  END
>  <DSSTox_RID>
20743

>  <DSSTox_CID>
743

>  <DSSTox_Generic_SID>
20743

>  <DSSTox_FileID>
776_CPDBAS_v5d

>  <STRUCTURE_Formula>
CHI3

>  <STRUCTURE_MolecularWeight>
393.7321

>  <STRUCTURE_ChemicalType>
defined organic

>  <STRUCTURE_TestedForm_DefinedOrganic>
parent

>  <STRUCTURE_Shown>
tested chemical

>  <TestSubstance_ChemicalName>
Iodoform

>  <TestSubstance_CASRN>
75-47-8

>  <TestSubstance_Description>
single chemical compound

>  <STRUCTURE_ChemicalName_IUPAC>
triiodomethane

>  <STRUCTURE_SMILES>
IC(I)I

>  <STRUCTURE_Parent_SMILES>
IC(I)I

>  <STRUCTURE_InChI>
InChI=1/CHI3/c2-1(3)4/h1H

>  <STRUCTURE_InChIKey>
OKJPEAGHQZHRQV-UHFFFAOYAY

>  <StudyType>
Carcinogenicity

>  <Endpoint>
TD50; Tumor Target Sites

>  <Species>
rat; mouse

>  <ActivityOutcome_CPDBAS_Mutagenicity>
active

>  <ActivityScore_CPDBAS_Rat>
0

>  <TD50_Rat_Note>
no positive results

>  <TargetSites_Rat_Male>
no positive results

>  <TargetSites_Rat_Female>
no positive results

>  <ActivityOutcome_CPDBAS_Rat>
inactive

>  <ActivityScore_CPDBAS_Mouse>
0

>  <TD50_Mouse_Note>
no positive results

>  <TargetSites_Mouse_Male>
no positive results

>  <TargetSites_Mouse_Female>
no positive results

>  <ActivityOutcome_CPDBAS_Mouse>
inactive

>  <ActivityOutcome_CPDBAS_SingleCellCall>
inactive

>  <ActivityOutcome_CPDBAS_MultiCellCall>
inactive

>  <ActivityOutcome_CPDBAS_MultiCellCall_Details>
multisex inactive; multispecies inactive

>  <NTP_TechnicalReport>
TR 110

>  <ChemicalPage_URL>
http://potency.berkeley.edu/chempages/IODOFORM.html

$$$$



 15 17  0  0  0  0  0  0  0  0999 V2000
    0.3043   -0.5362    0.0000 C   0  0  0  0  0  0  0  0  0  0  0  0
    1.2899   -1.4275    0.0000 N   0  0  0  0  0  0  0  0  0  0  0  0
    2.5942   -1.1522    0.0000 C   0  0  0  0  0  0  0  0  0  0  0  0
    3.2536   -2.3043    0.0000 C   0  0  0  0  0  0  0  0  0  0  0  0
    4.5869   -2.3043    0.0000 C   0  0  0  0  0  0  0  0  0  0  0  0
    5.2536   -1.1522    0.0000 C   0  0  0  0  0  0  0  0  0  0  0  0
    4.5869    0.0000    0.0000 C   0  0  0  0  0  0  0  0  0  0  0  0
    3.2536    0.0000    0.0000 C   0  0  0  0  0  0  0  0  0  0  0  0
    6.5797   -1.1522    0.0000 N   0  0  0  0  0  0  0  0  0  0  0  0
    7.2464   -2.3043    0.0000 C   0  0  0  0  0  0  0  0  0  0  0  0
    6.5797   -3.4565    0.0000 C   0  0  0  0  0  0  0  0  0  0  0  0
    5.2536   -3.4565    0.0000 C   0  0  0  0  0  0  0  0  0  0  0  0
    2.3696   -3.2898    0.0000 N   0  0  0  0  0  0  0  0  0  0  0  0
    1.1522   -2.7536    0.0000 C   0  0  0  0  0  0  0  0  0  0  0  0
    0.0000   -3.4203    0.0000 N   0  0  0  0  0  0  0  0  0  0  0  0
  1  2  1  0  0  0  0
  2  3  1  0  0  0  0
  2 14  1  0  0  0  0
  3  4  2  0  0  0  0
  3  8  1  0  0  0  0
  4  5  1  0  0  0  0
  4 13  1  0  0  0  0
  5  6  2  0  0  0  0
  5 12  1  0  0  0  0
  6  7  1  0  0  0  0
  6  9  1  0  0  0  0
  7  8  2  0  0  0  0
  9 10  2  0  0  0  0
 10 11  1  0  0  0  0
 11 12  2  0  0  0  0
 13 14  2  0  0  0  0
 14 15  1  0  0  0  0
M  END
>  <DSSTox_RID>
20745

>  <DSSTox_CID>
745

>  <DSSTox_Generic_SID>
20745

>  <DSSTox_FileID>
778_CPDBAS_v5d

>  <STRUCTURE_Formula>
C11H10N4

>  <STRUCTURE_MolecularWeight>
198.2268

>  <STRUCTURE_ChemicalType>
defined organic

>  <STRUCTURE_TestedForm_DefinedOrganic>
parent

>  <STRUCTURE_Shown>
tested chemical

>  <TestSubstance_ChemicalName>
IQ

>  <TestSubstance_CASRN>
76180-96-6

>  <TestSubstance_Description>
single chemical compound

>  <STRUCTURE_ChemicalName_IUPAC>
3-methyl-3H-imidazo[4,5-f]quinolin-2-amine

>  <STRUCTURE_SMILES>
NC1=NC(C3=C(N=CC=C3)C=C2)=C2N1C

>  <STRUCTURE_Parent_SMILES>
NC1=NC(C3=C(N=CC=C3)C=C2)=C2N1C

>  <STRUCTURE_InChI>
InChI=1/C11H10N4/c1-15-9-5-4-8-7(3-2-6-13-8)10(9)14-11(15)12/h2-6H,1H3,(H2,12,14)/f/h12H2

>  <STRUCTURE_InChIKey>
ARZWATDYIYAUTA-GAJRPKRDCD

>  <StudyType>
Carcinogenicity

>  <Endpoint>
TD50; Tumor Target Sites

>  <Species>
rat; mouse; cynomolgus

>  <ActivityOutcome_CPDBAS_Mutagenicity>
active

>  <TD50_Rat_mg>
0.812

>  <TD50_Rat_mmol>
0.0041

>  <ActivityScore_CPDBAS_Rat>
50

>  <TD50_Rat_Note>
TD50 is harmonic mean of more than one positive test; greater than ten-fold variation among TD50 values for positive results

>  <TargetSites_Rat_Male>
ear Zymbals gland; large intestine; liver; oral cavity; skin; small intestine

>  <TargetSites_Rat_Female>
clitoral gland; ear Zymbals gland; large intestine; liver; mammary gland; oral cavity; preputial gland; skin; small intestine

>  <ActivityOutcome_CPDBAS_Rat>
active

>  <TD50_Mouse_mg>
19.6

>  <TD50_Mouse_mmol>
0.0989

>  <ActivityScore_CPDBAS_Mouse>
40

>  <TD50_Mouse_Note>
TD50 is harmonic mean of more than one positive test

>  <TargetSites_Mouse_Male>
liver; lung; stomach

>  <TargetSites_Mouse_Female>
liver; lung; stomach

>  <ActivityOutcome_CPDBAS_Mouse>
active

>  <TD50_Cynomolgus_mg>
0.374

>  <TargetSites_Cynomolgus>
liver

>  <ActivityOutcome_CPDBAS_Dog_Primates>
active

>  <ActivityOutcome_CPDBAS_SingleCellCall>
active

>  <ActivityOutcome_CPDBAS_MultiCellCall>
active

>  <ActivityOutcome_CPDBAS_MultiCellCall_Details>
multisite active; multisex active; multispecies active

>  <ChemicalPage_URL>
http://potency.berkeley.edu/chempages/IQ.html

$$$$



 28 30  0  0  1  0  0  0  0  0999 V2000
    5.6788   -1.5774    0.0000 C   0  0  1  0  0  0  0  0  0  0  0  0
    2.2265   -3.6056    0.0000 C   0  0  0  0  0  0  0  0  0  0  0  0
    3.3352   -4.2726    0.0000 O   0  0  0  0  0  0  0  0  0  0  0  0
    3.3352   -5.5706    0.0000 C   0  0  1  0  0  0  0  0  0  0  0  0
    6.6884   -2.3166    0.0000 C   0  0  0  0  0  0  0  0  0  0  0  0
    2.2265   -2.3166    0.0000 C   0  0  0  0  0  0  0  0  0  0  0  0
    5.5887   -5.5706    0.0000 C   0  0  0  0  0  0  0  0  0  0  0  0
    4.4799   -7.5357    0.0000 N   0  3  3  0  0  0  0  0  0  0  0  0
    4.4799   -6.2016    0.0000 C   0  0  1  0  0  0  0  0  0  0  0  0
    6.6884   -3.6056    0.0000 O   0  0  0  0  0  0  0  0  0  0  0  0
    4.2726   -1.2620    0.0000 C   0  0  1  0  0  0  0  0  0  0  0  0
    6.6884   -6.2016    0.0000 C   0  0  0  0  0  0  0  0  0  0  0  0
    2.9476   -1.6135    0.0000 C   0  0  0  0  0  0  0  0  0  0  0  0
    2.2265   -6.2016    0.0000 C   0  0  0  0  0  0  0  0  0  0  0  0
    5.5887   -4.2726    0.0000 C   0  0  0  0  0  0  0  0  0  0  0  0
    6.6884   -7.5357    0.0000 C   0  0  0  0  0  0  0  0  0  0  0  0
    2.2265   -7.5357    0.0000 C   0  0  0  0  0  0  0  0  0  0  0  0
    1.0817   -4.2726    0.0000 O   0  0  0  0  0  0  0  0  0  0  0  0
    7.8151   -1.6676    0.0000 O   0  0  0  0  0  0  0  0  0  0  0  0
    1.1267   -1.6676    0.0000 C   0  0  0  0  0  0  0  0  0  0  0  0
    5.5797   -0.4777    0.0000 O   0  0  0  0  0  0  0  0  0  0  0  0
    6.4450   -1.0636    0.0000 C   0  0  0  0  0  0  0  0  0  0  0  0
    7.3374   -1.0636    0.0000 O   0  0  0  0  0  0  0  0  0  0  0  0
    4.2726    0.0000    0.0000 C   0  0  0  0  0  0  0  0  0  0  0  0
    0.0000   -2.2986    0.0000 C   0  0  0  0  0  0  0  0  0  0  0  0
    4.4799   -4.8675    0.0000 H   0  0  0  0  0  0  0  0  0  0  0  0
    1.1267   -0.3696    0.0000 H   0  0  0  0  0  0  0  0  0  0  0  0
    4.4799   -9.0140    0.0000 O   0  5  0  0  0  0  0  0  0  0  0  0
  1  5  1  0  0  0  0
  1 11  1  0  0  0  0
  1 21  1  1  0  0  0
  1 22  1  6  0  0  0
  2  6  1  0  0  0  0
  2  3  1  0  0  0  0
  2 18  2  0  0  0  0
  4  3  1  1  0  0  0
  4 14  1  0  0  0  0
  4  9  1  0  0  0  0
  5 10  1  0  0  0  0
  5 19  2  0  0  0  0
  6 13  1  0  0  0  0
  6 20  2  0  0  0  0
  7 15  1  0  0  0  0
  7  9  1  0  0  0  0
  7 12  2  0  0  0  0
  8  9  1  0  0  0  0
  8 17  1  0  0  0  0
  8 16  1  0  0  0  0
  8 28  1  0  0  0  0
  9 26  1  6  0  0  0
 10 15  1  0  0  0  0
 11 13  1  0  0  0  0
 11 24  1  1  0  0  0
 12 16  1  0  0  0  0
 14 17  1  0  0  0  0
 20 25  1  0  0  0  0
 20 27  1  0  0  0  0
 22 23  1  0  0  0  0
M  END
>  <DSSTox_RID>
20747

>  <DSSTox_CID>
747

>  <DSSTox_Generic_SID>
20747

>  <DSSTox_FileID>
781_CPDBAS_v5d

>  <STRUCTURE_Formula>
C18H25NO7

>  <STRUCTURE_MolecularWeight>
367.3936

>  <STRUCTURE_ChemicalType>
defined organic

>  <STRUCTURE_TestedForm_DefinedOrganic>
parent

>  <STRUCTURE_Shown>
tested chemical

>  <TestSubstance_ChemicalName>
Isatidine

>  <TestSubstance_CASRN>
15503-86-3

>  <TestSubstance_Description>
single chemical compound

>  <ChemicalNote>
stereochem

>  <STRUCTURE_ChemicalName_IUPAC>
(3Z,5R,6S,14aR,14bR)-3-ethylidene-6-hydroxy-6-(hydroxymethyl)-5-methyl-3,4,5,6,9,11,13,14,14a,14b-decahydro[1,6]dioxacyclododecino[2,3,4-gh]pyrrolizine-2,7-dione 12-oxide

>  <STRUCTURE_SMILES>
O=C(O[C@@H]1CC[N+]2([O-])[C@@]([H])1C3=CC2)\C(C[C@@H](C)[C@](O)(CO)C(OC3)=O)=C([H])/C

>  <STRUCTURE_Parent_SMILES>
O=C(O[C@@H]1CC[N+]2([O-])[C@@]([H])1C3=CC2)\C(C[C@@H](C)[C@](O)(CO)C(OC3)=O)=C([H])/C

>  <STRUCTURE_InChI>
InChI=1/C18H25NO7/c1-3-12-8-11(2)18(23,10-20)17(22)25-9-13-4-6-19(24)7-5-14(15(13)19)26-16(12)21/h3-4,11,14-15,20,23H,5-10H2,1-2H3/b12-3-/t11-,14-,15-,18-,19?/m1/s1

>  <STRUCTURE_InChIKey>
IDIMIWQPUHURPV-WTWIWYCDBW

>  <StudyType>
Carcinogenicity

>  <Endpoint>
TD50; Tumor Target Sites

>  <Species>
rat

>  <TD50_Rat_mg>
0.716

>  <TD50_Rat_mmol>
0.00195

>  <ActivityScore_CPDBAS_Rat>
54

>  <TD50_Rat_Note>
TD50 is harmonic mean of more than one positive test

>  <TargetSites_Rat_Male>
liver

>  <TargetSites_Rat_Female>
liver

>  <ActivityOutcome_CPDBAS_Rat>
active

>  <ActivityOutcome_CPDBAS_SingleCellCall>
active

>  <ActivityOutcome_CPDBAS_MultiCellCall>
active

>  <ActivityOutcome_CPDBAS_MultiCellCall_Details>
multisex active

>  <Note_CPDBAS>
Mouse added v3a; chemical added v3a

>  <ChemicalPage_URL>
http://potency.berkeley.edu/chempages/ISATIDINE.html

$$$$



  4  3  0  0  0  0  0  0  0  0999 V2000
    1.1459   -1.3361    0.0000 C   0  0  0  0  0  0  0  0  0  0  0  0
    0.0000   -2.0053    0.0000 C   0  0  0  0  0  0  0  0  0  0  0  0
    2.2917   -2.0053    0.0000 C   0  0  0  0  0  0  0  0  0  0  0  0
    1.1459    0.0000    0.0000 C   0  0  0  0  0  0  0  0  0  0  0  0
  1  2  2  0  0  0  0
  1  3  1  0  0  0  0
  1  4  1  0  0  0  0
M  END
>  <DSSTox_RID>
20748

>  <DSSTox_CID>
748

>  <DSSTox_Generic_SID>
20748

>  <DSSTox_FileID>
782_CPDBAS_v5d

>  <STRUCTURE_Formula>
C4H8

>  <STRUCTURE_MolecularWeight>
56.1063

>  <STRUCTURE_ChemicalType>
defined organic

>  <STRUCTURE_TestedForm_DefinedOrganic>
parent

>  <STRUCTURE_Shown>
tested chemical

>  <TestSubstance_ChemicalName>
Isobutene

>  <TestSubstance_CASRN>
115-11-7

>  <TestSubstance_Description>
single chemical compound

>  <STRUCTURE_ChemicalName_IUPAC>
2-methylprop-1-ene

>  <STRUCTURE_SMILES>
CC(C)=C

>  <STRUCTURE_Parent_SMILES>
CC(C)=C

>  <STRUCTURE_InChI>
InChI=1/C4H8/c1-4(2)3/h1H2,2-3H3

>  <STRUCTURE_InChIKey>
VQTUBCCKSQIDNK-UHFFFAOYAW

>  <StudyType>
Carcinogenicity

>  <Endpoint>
TD50; Tumor Target Sites

>  <Species>
rat; mouse

>  <ActivityOutcome_CPDBAS_Mutagenicity>
inactive

>  <TD50_Rat_mg>
3550

>  <TD50_Rat_mmol>
63.3

>  <ActivityScore_CPDBAS_Rat>
7

>  <TargetSites_Rat_Male>
thyroid gland

>  <TargetSites_Rat_Female>
no positive results

>  <ActivityOutcome_CPDBAS_Rat>
active

>  <ActivityScore_CPDBAS_Mouse>
0

>  <TD50_Mouse_Note>
no positive results

>  <TargetSites_Mouse_Male>
no positive results

>  <TargetSites_Mouse_Female>
no positive results

>  <ActivityOutcome_CPDBAS_Mouse>
inactive

>  <ActivityOutcome_CPDBAS_SingleCellCall>
active

>  <Note_CPDBAS>
Rat added v2a; Mouse added v2a

>  <NTP_TechnicalReport>
TR 487

>  <ChemicalPage_URL>
http://potency.berkeley.edu/chempages/ISOBUTENE.html

$$$$



 14 14  0  0  0  0  0  0  0  0999 V2000
    5.7568   -1.9895    0.0000 C   0  0  0  0  0  0  0  0  0  0  0  0
    4.6054   -1.3264    0.0000 C   0  0  0  0  0  0  0  0  0  0  0  0
    3.4541   -1.9895    0.0000 O   0  0  0  0  0  0  0  0  0  0  0  0
    2.3027   -1.3264    0.0000 C   0  0  0  0  0  0  0  0  0  0  0  0
    1.1514   -1.9895    0.0000 C   0  0  0  0  0  0  0  0  0  0  0  0
    1.1514   -3.3251    0.0000 C   0  0  0  0  0  0  0  0  0  0  0  0
    0.0000   -1.3264    0.0000 C   0  0  0  0  0  0  0  0  0  0  0  0
    4.6054    0.0000    0.0000 O   0  0  0  0  0  0  0  0  0  0  0  0
    6.9081   -1.3264    0.0000 C   0  0  0  0  0  0  0  0  0  0  0  0
    8.0595   -1.9895    0.0000 C   0  0  0  0  0  0  0  0  0  0  0  0
    8.0595   -3.3251    0.0000 C   0  0  0  0  0  0  0  0  0  0  0  0
    9.2108   -3.9883    0.0000 O   0  0  0  0  0  0  0  0  0  0  0  0
    6.9081   -3.9883    0.0000 C   0  0  0  0  0  0  0  0  0  0  0  0
    5.7568   -3.3251    0.0000 C   0  0  0  0  0  0  0  0  0  0  0  0
  1  2  1  0  0  0  0
  1  9  2  0  0  0  0
  1 14  1  0  0  0  0
  2  3  1  0  0  0  0
  2  8  2  0  0  0  0
  3  4  1  0  0  0  0
  4  5  1  0  0  0  0
  5  6  1  0  0  0  0
  5  7  1  0  0  0  0
  9 10  1  0  0  0  0
 10 11  2  0  0  0  0
 11 12  1  0  0  0  0
 11 13  1  0  0  0  0
 13 14  2  0  0  0  0
M  END
>  <DSSTox_RID>
20749

>  <DSSTox_CID>
749

>  <DSSTox_Generic_SID>
20749

>  <DSSTox_FileID>
783_CPDBAS_v5d

>  <STRUCTURE_Formula>
C11H14O3

>  <STRUCTURE_MolecularWeight>
194.2298

>  <STRUCTURE_ChemicalType>
defined organic

>  <STRUCTURE_TestedForm_DefinedOrganic>
parent

>  <STRUCTURE_Shown>
tested chemical

>  <TestSubstance_ChemicalName>
Isobutyl p-hydroxybenzoate

>  <TestSubstance_CASRN>
4247-02-3

>  <TestSubstance_Description>
single chemical compound

>  <STRUCTURE_ChemicalName_IUPAC>
2-methylpropyl 4-hydroxybenzoate

>  <STRUCTURE_SMILES>
C1(C(OCC(C)C)=O)=CC=C(O)C=C1

>  <STRUCTURE_Parent_SMILES>
C1(C(OCC(C)C)=O)=CC=C(O)C=C1

>  <STRUCTURE_InChI>
InChI=1/C11H14O3/c1-8(2)7-14-11(13)9-3-5-10(12)6-4-9/h3-6,8,12H,7H2,1-2H3

>  <STRUCTURE_InChIKey>
XPJVKCRENWUEJH-UHFFFAOYAH

>  <StudyType>
Carcinogenicity

>  <Endpoint>
TD50; Tumor Target Sites

>  <Species>
mouse

>  <ActivityScore_CPDBAS_Mouse>
0

>  <TD50_Mouse_Note>
no positive results

>  <TargetSites_Mouse_Male>
no positive results

>  <TargetSites_Mouse_Female>
no positive results

>  <ActivityOutcome_CPDBAS_Mouse>
inactive

>  <ActivityOutcome_CPDBAS_SingleCellCall>
inactive

>  <ActivityOutcome_CPDBAS_MultiCellCall>
inactive

>  <ActivityOutcome_CPDBAS_MultiCellCall_Details>
multisex inactive

>  <ChemicalPage_URL>
http://potency.berkeley.edu/chempages/ISOBUTYL%20p-HYDROXYBENZOATE.html

$$$$



  7  6  0  0  0  0  0  0  0  0999 V2000
    5.7637   -1.9942    0.0000 C   0  0  0  0  0  0  0  0  0  0  0  0
    4.6110   -1.3314    0.0000 C   0  0  0  0  0  0  0  0  0  0  0  0
    3.4582   -1.9942    0.0000 C   0  0  0  0  0  0  0  0  0  0  0  0
    2.3055   -1.3314    0.0000 O   0  0  0  0  0  0  0  0  0  0  0  0
    1.1527   -1.9942    0.0000 N   0  0  0  0  0  0  0  0  0  0  0  0
    0.0000   -1.3314    0.0000 O   0  0  0  0  0  0  0  0  0  0  0  0
    4.6110    0.0000    0.0000 C   0  0  0  0  0  0  0  0  0  0  0  0
  1  2  1  0  0  0  0
  2  3  1  0  0  0  0
  2  7  1  0  0  0  0
  3  4  1  0  0  0  0
  4  5  1  0  0  0  0
  5  6  2  0  0  0  0
M  END
>  <DSSTox_RID>
20750

>  <DSSTox_CID>
750

>  <DSSTox_Generic_SID>
20750

>  <DSSTox_FileID>
784_CPDBAS_v5d

>  <STRUCTURE_Formula>
C4H9NO2

>  <STRUCTURE_MolecularWeight>
103.1198

>  <STRUCTURE_ChemicalType>
defined organic

>  <STRUCTURE_TestedForm_DefinedOrganic>
parent

>  <STRUCTURE_Shown>
tested chemical

>  <TestSubstance_ChemicalName>
Isobutyl nitrite

>  <TestSubstance_CASRN>
542-56-3

>  <TestSubstance_Description>
single chemical compound

>  <STRUCTURE_ChemicalName_IUPAC>
2-methylpropyl nitrite

>  <STRUCTURE_SMILES>
CC(CON=O)C

>  <STRUCTURE_Parent_SMILES>
CC(CON=O)C

>  <STRUCTURE_InChI>
InChI=1/C4H9NO2/c1-4(2)3-7-5-6/h4H,3H2,1-2H3

>  <STRUCTURE_InChIKey>
APNSGVMLAYLYCT-UHFFFAOYAF

>  <StudyType>
Carcinogenicity

>  <Endpoint>
TD50; Tumor Target Sites

>  <Species>
rat; mouse

>  <ActivityOutcome_CPDBAS_Mutagenicity>
active

>  <TD50_Rat_mg>
54.1

>  <TD50_Rat_mmol>
0.525

>  <ActivityScore_CPDBAS_Rat>
29

>  <TD50_Rat_Note>
TD50 is harmonic mean of more than one positive test

>  <TargetSites_Rat_Male>
lung

>  <TargetSites_Rat_Female>
lung

>  <ActivityOutcome_CPDBAS_Rat>
active

>  <TD50_Mouse_mg>
310

>  <TD50_Mouse_mmol>
3.01

>  <ActivityScore_CPDBAS_Mouse>
23

>  <TD50_Mouse_Note>
TD50 is harmonic mean of more than one positive test

>  <TargetSites_Mouse_Male>
lung

>  <TargetSites_Mouse_Female>
lung

>  <ActivityOutcome_CPDBAS_Mouse>
active

>  <ActivityOutcome_CPDBAS_SingleCellCall>
active

>  <ActivityOutcome_CPDBAS_MultiCellCall>
active

>  <ActivityOutcome_CPDBAS_MultiCellCall_Details>
multisex active; multispecies active

>  <NTP_TechnicalReport>
TR 448

>  <ChemicalPage_URL>
http://potency.berkeley.edu/chempages/ISOBUTYL%20NITRITE.html

$$$$



 13 12  0  0  0  0  0  0  0  0999 V2000
    0.0000   -2.6634    0.0000 C   0  0  0  0  0  0  0  0  0  0  0  0
    1.1541   -2.0015    0.0000 C   0  0  0  0  0  0  0  0  0  0  0  0
    1.1541   -0.6699    0.0000 C   0  0  0  0  0  0  0  0  0  0  0  0
    2.3082   -2.6634    0.0000 C   0  0  0  0  0  0  0  0  0  0  0  0
    3.4624   -2.0015    0.0000 N   0  0  0  0  0  0  0  0  0  0  0  0
    3.4624   -0.6699    0.0000 N   0  0  0  0  0  0  0  0  0  0  0  0
    4.6084    0.0000    0.0000 O   0  0  0  0  0  0  0  0  0  0  0  0
    4.6084   -2.6634    0.0000 C   0  0  0  0  0  0  0  0  0  0  0  0
    4.6084   -3.9950    0.0000 N   0  0  0  0  0  0  0  0  0  0  0  0
    5.7625   -2.0015    0.0000 N   0  0  0  0  0  0  0  0  0  0  0  0
    6.9166   -2.6634    0.0000 N   0  3  0  0  0  0  0  0  0  0  0  0
    8.0708   -2.0015    0.0000 O   0  5  0  0  0  0  0  0  0  0  0  0
    6.9166   -3.9950    0.0000 O   0  0  0  0  0  0  0  0  0  0  0  0
  1  2  1  0  0  0  0
  2  3  1  0  0  0  0
  2  4  1  0  0  0  0
  4  5  1  0  0  0  0
  5  6  1  0  0  0  0
  5  8  1  0  0  0  0
  6  7  2  0  0  0  0
  8  9  2  0  0  0  0
  8 10  1  0  0  0  0
 10 11  1  0  0  0  0
 11 12  1  0  0  0  0
 11 13  2  0  0  0  0
M  END
>  <DSSTox_RID>
20751

>  <DSSTox_CID>
751

>  <DSSTox_Generic_SID>
20751

>  <DSSTox_FileID>
785_CPDBAS_v5d

>  <STRUCTURE_Formula>
C5H11N5O3

>  <STRUCTURE_MolecularWeight>
189.1736

>  <STRUCTURE_ChemicalType>
defined organic

>  <STRUCTURE_TestedForm_DefinedOrganic>
parent

>  <STRUCTURE_Shown>
tested chemical

>  <TestSubstance_ChemicalName>
N-Isobutyl-N'-nitro-N-nitrosoguanidine

>  <TestSubstance_CASRN>
5461-85-8

>  <TestSubstance_Description>
single chemical compound

>  <ChemicalNote>
tautomers

>  <STRUCTURE_ChemicalName_IUPAC>
1-(2-methylpropyl)-3-nitro-1-nitrosoguanidine

>  <STRUCTURE_SMILES>
CC(C)CN(N=O)C(=N)N[N+]([O-])=O

>  <STRUCTURE_Parent_SMILES>
CC(C)CN(N=O)C(=N)N[N+]([O-])=O

>  <STRUCTURE_InChI>
InChI=1/C5H11N5O3/c1-4(2)3-9(8-11)5(6)7-10(12)13/h4H,3H2,1-2H3,(H2,6,7)/f/h6-7H

>  <STRUCTURE_InChIKey>
SSNMTYTXJCMMSO-ZDKSUBDRCZ

>  <StudyType>
Carcinogenicity

>  <Endpoint>
TD50; Tumor Target Sites

>  <Species>
rat

>  <ActivityOutcome_CPDBAS_Mutagenicity>
active

>  <ActivityScore_CPDBAS_Rat>
0

>  <TD50_Rat_Note>
no positive results

>  <TargetSites_Rat_Male>
no positive results

>  <ActivityOutcome_CPDBAS_Rat>
inactive

>  <ActivityOutcome_CPDBAS_SingleCellCall>
inactive

>  <ChemicalPage_URL>
http://potency.berkeley.edu/chempages/N-ISOBUTYL-N'-NITRO-N-NITROSOGUANIDINE.html

$$$$



  5  4  0  0  0  0  0  0  0  0999 V2000
    3.4567   -1.9945    0.0000 C   0  0  0  0  0  0  0  0  0  0  0  0
    2.3056   -1.3308    0.0000 C   0  0  0  0  0  0  0  0  0  0  0  0
    2.3056    0.0000    0.0000 C   0  0  0  0  0  0  0  0  0  0  0  0
    1.1511   -1.9945    0.0000 C   0  0  0  0  0  0  0  0  0  0  0  0
    0.0000   -1.3308    0.0000 O   0  0  0  0  0  0  0  0  0  0  0  0
  1  2  1  0  0  0  0
  2  3  1  0  0  0  0
  2  4  1  0  0  0  0
  4  5  2  0  0  0  0
M  END
>  <DSSTox_RID>
40801

>  <DSSTox_CID>
1635

>  <DSSTox_Generic_SID>
21635

>  <DSSTox_FileID>
786_CPDBAS_v5d

>  <STRUCTURE_Formula>
C4H8O

>  <STRUCTURE_MolecularWeight>
72.1057

>  <STRUCTURE_ChemicalType>
defined organic

>  <STRUCTURE_TestedForm_DefinedOrganic>
parent

>  <STRUCTURE_Shown>
tested chemical

>  <TestSubstance_ChemicalName>
Isobutyraldehyde

>  <TestSubstance_CASRN>
78-84-2

>  <TestSubstance_Description>
single chemical compound

>  <STRUCTURE_ChemicalName_IUPAC>
2-methylpropanal

>  <STRUCTURE_SMILES>
CC(C)C=O

>  <STRUCTURE_Parent_SMILES>
CC(C)C=O

>  <STRUCTURE_InChI>
InChI=1/C4H8O/c1-4(2)3-5/h3-4H,1-2H3

>  <STRUCTURE_InChIKey>
AMIMRNSIRUDHCM-UHFFFAOYAE

>  <StudyType>
Carcinogenicity

>  <Endpoint>
TD50; Tumor Target Sites

>  <Species>
rat; mouse

>  <ActivityOutcome_CPDBAS_Mutagenicity>
inactive

>  <ActivityScore_CPDBAS_Rat>
0

>  <TD50_Rat_Note>
no positive results

>  <TargetSites_Rat_Male>
no positive results

>  <TargetSites_Rat_Female>
no positive results

>  <ActivityOutcome_CPDBAS_Rat>
inactive

>  <ActivityScore_CPDBAS_Mouse>
0

>  <TD50_Mouse_Note>
no positive results

>  <TargetSites_Mouse_Male>
no positive results

>  <TargetSites_Mouse_Female>
no positive results

>  <ActivityOutcome_CPDBAS_Mouse>
inactive

>  <ActivityOutcome_CPDBAS_SingleCellCall>
inactive

>  <ActivityOutcome_CPDBAS_MultiCellCall>
inactive

>  <ActivityOutcome_CPDBAS_MultiCellCall_Details>
multisex inactive; multispecies inactive

>  <Note_CPDBAS>
Rat added v5a; Mouse added v5a; Mutagenicity_SAL_CPDB added v5a; chemical added v5a

>  <ChemicalPage_URL>
http://potency.berkeley.edu/chempages/ISOBUTYRALDEHYDE.html

$$$$



 10  9  0  0  0  0  0  0  0  0999 V2000
    0.4898   -2.3048    0.0000 F   0  0  0  0  0  0  0  0  0  0  0  0
    1.1524   -1.1524    0.0000 C   0  0  0  0  0  0  0  0  0  0  0  0
    2.3048   -1.8150    0.0000 C   0  0  3  0  0  0  0  0  0  0  0  0
    3.4571   -1.1524    0.0000 O   0  0  0  0  0  0  0  0  0  0  0  0
    4.6095   -1.8150    0.0000 C   0  0  0  0  0  0  0  0  0  0  0  0
    4.6095   -3.1460    0.0000 F   0  0  0  0  0  0  0  0  0  0  0  0
    5.7619   -1.1524    0.0000 F   0  0  0  0  0  0  0  0  0  0  0  0
    2.3048   -3.1460    0.0000 Cl  0  0  0  0  0  0  0  0  0  0  0  0
    0.0000   -0.4840    0.0000 F   0  0  0  0  0  0  0  0  0  0  0  0
    1.8150    0.0000    0.0000 F   0  0  0  0  0  0  0  0  0  0  0  0
  1  2  1  0  0  0  0
  2  3  1  0  0  0  0
  2  9  1  0  0  0  0
  2 10  1  0  0  0  0
  3  4  1  0  0  0  0
  3  8  1  0  0  0  0
  4  5  1  0  0  0  0
  5  6  1  0  0  0  0
  5  7  1  0  0  0  0
M  END
>  <DSSTox_RID>
20752

>  <DSSTox_CID>
752

>  <DSSTox_Generic_SID>
20752

>  <DSSTox_FileID>
787_CPDBAS_v5d

>  <STRUCTURE_Formula>
C3H2ClF5O

>  <STRUCTURE_MolecularWeight>
184.4924

>  <STRUCTURE_ChemicalType>
defined organic

>  <STRUCTURE_TestedForm_DefinedOrganic>
parent

>  <STRUCTURE_Shown>
tested chemical

>  <TestSubstance_ChemicalName>
Isoflurane

>  <TestSubstance_CASRN>
26675-46-7

>  <TestSubstance_Description>
single chemical compound

>  <STRUCTURE_ChemicalName_IUPAC>
1-chloro-2,2,2-trifluoroethyl difluoromethyl ether

>  <STRUCTURE_SMILES>
FC(C(OC(F)F)Cl)(F)F

>  <STRUCTURE_Parent_SMILES>
FC(C(OC(F)F)Cl)(F)F

>  <STRUCTURE_InChI>
InChI=1/C3H2ClF5O/c4-1(3(7,8)9)10-2(5)6/h1-2H

>  <STRUCTURE_InChIKey>
PIWKPBJCKXDKJR-UHFFFAOYAP

>  <StudyType>
Carcinogenicity

>  <Endpoint>
TD50; Tumor Target Sites

>  <Species>
mouse

>  <ActivityOutcome_CPDBAS_Mutagenicity>
inactive

>  <ActivityScore_CPDBAS_Mouse>
0

>  <TD50_Mouse_Note>
no positive results

>  <TargetSites_Mouse_Male>
no positive results

>  <TargetSites_Mouse_Female>
no positive results

>  <ActivityOutcome_CPDBAS_Mouse>
inactive

>  <ActivityOutcome_CPDBAS_SingleCellCall>
inactive

>  <ActivityOutcome_CPDBAS_MultiCellCall>
inactive

>  <ActivityOutcome_CPDBAS_MultiCellCall_Details>
multisex inactive

>  <ChemicalPage_URL>
http://potency.berkeley.edu/chempages/ISOFLURANE.html

$$$$



 20 22  0  0  0  0  0  0  0  0999 V2000
    6.3464    0.0000    0.0000 C   0  0  0  0  0  0  0  0  0  0  0  0
    5.6849   -1.1473    0.0000 O   0  0  0  0  0  0  0  0  0  0  0  0
    6.3464   -2.3050    0.0000 C   0  0  0  0  0  0  0  0  0  0  0  0
    7.6798   -2.3050    0.0000 C   0  0  0  0  0  0  0  0  0  0  0  0
    8.3413   -3.4523    0.0000 C   0  0  0  0  0  0  0  0  0  0  0  0
    7.6798   -4.6099    0.0000 C   0  0  0  0  0  0  0  0  0  0  0  0
    6.3464   -4.6099    0.0000 C   0  0  0  0  0  0  0  0  0  0  0  0
    5.6849   -3.4523    0.0000 C   0  0  0  0  0  0  0  0  0  0  0  0
    4.3515   -3.4523    0.0000 C   0  0  0  0  0  0  0  0  0  0  0  0
    3.5660   -4.5272    0.0000 N   0  0  0  0  0  0  0  0  0  0  0  0
    2.3050   -4.1241    0.0000 C   0  0  0  0  0  0  0  0  0  0  0  0
    1.1473   -4.7856    0.0000 C   0  0  0  0  0  0  0  0  0  0  0  0
    0.0000   -4.1241    0.0000 N   0  0  0  0  0  0  0  0  0  0  0  0
    0.0000   -2.7908    0.0000 C   0  0  0  0  0  0  0  0  0  0  0  0
    1.1473   -2.1292    0.0000 C   0  0  0  0  0  0  0  0  0  0  0  0
    2.3050   -2.7908    0.0000 C   0  0  0  0  0  0  0  0  0  0  0  0
    3.5660   -2.3773    0.0000 N   0  0  0  0  0  0  0  0  0  0  0  0
    9.6746   -3.4523    0.0000 S   0  0  3  0  0  0  0  0  0  0  0  0
   10.3361   -2.3050    0.0000 C   0  0  0  0  0  0  0  0  0  0  0  0
   10.3361   -4.6099    0.0000 O   0  0  0  0  0  0  0  0  0  0  0  0
  1  2  1  0  0  0  0
  2  3  1  0  0  0  0
  3  4  1  0  0  0  0
  3  8  2  0  0  0  0
  4  5  2  0  0  0  0
  5  6  1  0  0  0  0
  5 18  1  0  0  0  0
  6  7  2  0  0  0  0
  7  8  1  0  0  0  0
  8  9  1  0  0  0  0
  9 10  1  0  0  0  0
  9 17  2  0  0  0  0
 10 11  1  0  0  0  0
 11 12  2  0  0  0  0
 11 16  1  0  0  0  0
 12 13  1  0  0  0  0
 13 14  2  0  0  0  0
 14 15  1  0  0  0  0
 15 16  2  0  0  0  0
 16 17  1  0  0  0  0
 18 19  1  0  0  0  0
 18 20  2  0  0  0  0
M  END
>  <DSSTox_RID>
20754

>  <DSSTox_CID>
754

>  <DSSTox_Generic_SID>
20754

>  <DSSTox_FileID>
789_CPDBAS_v5d

>  <STRUCTURE_Formula>
C14H13N3O2S

>  <STRUCTURE_MolecularWeight>
287.3356

>  <STRUCTURE_ChemicalType>
defined organic

>  <STRUCTURE_TestedForm_DefinedOrganic>
parent

>  <STRUCTURE_Shown>
tested chemical

>  <TestSubstance_ChemicalName>
Isomazole

>  <TestSubstance_CASRN>
86315-52-8

>  <TestSubstance_Description>
single chemical compound

>  <STRUCTURE_ChemicalName_IUPAC>
2-[2-(methyloxy)-4-(methylsulfinyl)phenyl]-3H-imidazo[4,5-c]pyridine

>  <STRUCTURE_SMILES>
COC1C=C(C=CC=1C2NC3=CN=CC=C3N=2)S(C)=O

>  <STRUCTURE_Parent_SMILES>
COC1C=C(C=CC=1C2NC3=CN=CC=C3N=2)S(C)=O

>  <STRUCTURE_InChI>
InChI=1/C14H13N3O2S/c1-19-13-7-9(20(2)18)3-4-10(13)14-16-11-5-6-15-8-12(11)17-14/h3-8H,1-2H3,(H,16,17)/f/h17H

>  <STRUCTURE_InChIKey>
JQUKCPUPFALELS-HCKMINDGCS

>  <StudyType>
Carcinogenicity

>  <Endpoint>
TD50; Tumor Target Sites

>  <Species>
rat

>  <TD50_Rat_mg>
70.5

>  <TD50_Rat_mmol>
0.245

>  <ActivityScore_CPDBAS_Rat>
32

>  <TD50_Rat_Note>
TD50 is harmonic mean of more than one positive test

>  <TargetSites_Rat_Male>
adrenal gland

>  <TargetSites_Rat_Female>
adrenal gland

>  <ActivityOutcome_CPDBAS_Rat>
active

>  <ActivityOutcome_CPDBAS_SingleCellCall>
active

>  <ActivityOutcome_CPDBAS_MultiCellCall>
active

>  <ActivityOutcome_CPDBAS_MultiCellCall_Details>
multisex active

>  <ChemicalPage_URL>
http://potency.berkeley.edu/chempages/ISOMAZOLE.html

$$$$



 10 10  0  0  0  0  0  0  0  0999 V2000
    4.6545   -3.4536    0.0000 O   0  0  0  0  0  0  0  0  0  0  0  0
    3.9889   -2.3040    0.0000 C   0  0  0  0  0  0  0  0  0  0  0  0
    2.6577   -2.3040    0.0000 C   0  0  0  0  0  0  0  0  0  0  0  0
    1.9968   -3.4536    0.0000 C   0  0  0  0  0  0  0  0  0  0  0  0
    0.6656   -3.4536    0.0000 C   0  0  0  0  0  0  0  0  0  0  0  0
    0.0000   -2.3040    0.0000 N   0  0  0  0  0  0  0  0  0  0  0  0
    0.6656   -1.1497    0.0000 C   0  0  0  0  0  0  0  0  0  0  0  0
    1.9968   -1.1497    0.0000 C   0  0  0  0  0  0  0  0  0  0  0  0
    4.6545   -1.1497    0.0000 N   0  0  0  0  0  0  0  0  0  0  0  0
    3.9889    0.0000    0.0000 N   0  0  0  0  0  0  0  0  0  0  0  0
  1  2  2  0  0  0  0
  2  3  1  0  0  0  0
  2  9  1  0  0  0  0
  3  4  2  0  0  0  0
  3  8  1  0  0  0  0
  4  5  1  0  0  0  0
  5  6  2  0  0  0  0
  6  7  1  0  0  0  0
  7  8  2  0  0  0  0
  9 10  1  0  0  0  0
M  END
>  <DSSTox_RID>
20755

>  <DSSTox_CID>
755

>  <DSSTox_Generic_SID>
20755

>  <DSSTox_FileID>
790_CPDBAS_v5d

>  <STRUCTURE_Formula>
C6H7N3O

>  <STRUCTURE_MolecularWeight>
137.1393

>  <STRUCTURE_ChemicalType>
defined organic

>  <STRUCTURE_TestedForm_DefinedOrganic>
parent

>  <STRUCTURE_Shown>
tested chemical

>  <TestSubstance_ChemicalName>
Isoniazid

>  <TestSubstance_CASRN>
54-85-3

>  <TestSubstance_Description>
single chemical compound

>  <STRUCTURE_ChemicalName_IUPAC>
isonicotinohydrazide

>  <STRUCTURE_SMILES>
O=C(C1=CC=NC=C1)NN

>  <STRUCTURE_Parent_SMILES>
O=C(C1=CC=NC=C1)NN

>  <STRUCTURE_InChI>
InChI=1/C6H7N3O/c7-9-6(10)5-1-3-8-4-2-5/h1-4H,7H2,(H,9,10)/f/h9H

>  <STRUCTURE_InChIKey>
QRXWMOHMRWLFEY-BGGKNDAXCZ

>  <StudyType>
Carcinogenicity

>  <Endpoint>
TD50; Tumor Target Sites

>  <Species>
rat; mouse; hamster

>  <ActivityOutcome_CPDBAS_Mutagenicity>
active

>  <TD50_Rat_mg>
150

>  <TD50_Rat_mmol>
1.09

>  <ActivityScore_CPDBAS_Rat>
25

>  <TD50_Rat_Note>
TD50 is harmonic mean of more than one positive test

>  <TargetSites_Rat_Male>
liver; lung

>  <TargetSites_Rat_Female>
mammary gland

>  <ActivityOutcome_CPDBAS_Rat>
active

>  <TD50_Mouse_mg>
27.1

>  <TD50_Mouse_mmol>
0.198

>  <ActivityScore_CPDBAS_Mouse>
36

>  <TD50_Mouse_Note>
TD50 is harmonic mean of more than one positive test; greater than ten-fold variation among TD50 values for positive results

>  <TargetSites_Mouse_Male>
liver; lung

>  <TargetSites_Mouse_Female>
liver; lung

>  <TargetSites_Mouse_BothSexes>
mammary gland

>  <ActivityOutcome_CPDBAS_Mouse>
active

>  <ActivityScore_CPDBAS_Hamster>
0

>  <TD50_Hamster_Note>
no positive results

>  <TargetSites_Hamster_Male>
no positive results

>  <TargetSites_Hamster_Female>
no positive results

>  <ActivityOutcome_CPDBAS_Hamster>
inactive

>  <ActivityOutcome_CPDBAS_SingleCellCall>
active

>  <ActivityOutcome_CPDBAS_MultiCellCall>
active

>  <ActivityOutcome_CPDBAS_MultiCellCall_Details>
multisite active; multisex active; multispecies active

>  <ChemicalPage_URL>
http://potency.berkeley.edu/chempages/ISONIAZID.html

$$$$



  9  9  0  0  0  0  0  0  0  0999 V2000
    0.0000   -2.3037    0.0000 N   0  0  0  0  0  0  0  0  0  0  0  0
    0.6655   -1.1542    0.0000 C   0  0  0  0  0  0  0  0  0  0  0  0
    0.0000    0.0000    0.0000 O   0  0  0  0  0  0  0  0  0  0  0  0
    1.9965   -1.1542    0.0000 C   0  0  0  0  0  0  0  0  0  0  0  0
    2.6574    0.0000    0.0000 C   0  0  0  0  0  0  0  0  0  0  0  0
    3.9884    0.0000    0.0000 C   0  0  0  0  0  0  0  0  0  0  0  0
    4.6539   -1.1542    0.0000 N   0  0  0  0  0  0  0  0  0  0  0  0
    3.9884   -2.3037    0.0000 C   0  0  0  0  0  0  0  0  0  0  0  0
    2.6574   -2.3037    0.0000 C   0  0  0  0  0  0  0  0  0  0  0  0
  1  2  1  0  0  0  0
  2  3  2  0  0  0  0
  2  4  1  0  0  0  0
  4  5  2  0  0  0  0
  4  9  1  0  0  0  0
  5  6  1  0  0  0  0
  6  7  2  0  0  0  0
  7  8  1  0  0  0  0
  8  9  2  0  0  0  0
M  END
>  <DSSTox_RID>
20756

>  <DSSTox_CID>
756

>  <DSSTox_Generic_SID>
20756

>  <DSSTox_FileID>
791_CPDBAS_v5d

>  <STRUCTURE_Formula>
C6H6N2O

>  <STRUCTURE_MolecularWeight>
122.1262

>  <STRUCTURE_ChemicalType>
defined organic

>  <STRUCTURE_TestedForm_DefinedOrganic>
parent

>  <STRUCTURE_Shown>
tested chemical

>  <TestSubstance_ChemicalName>
Isonicotinamide

>  <TestSubstance_CASRN>
1453-82-3

>  <TestSubstance_Description>
single chemical compound

>  <STRUCTURE_ChemicalName_IUPAC>
pyridine-4-carboxamide

>  <STRUCTURE_SMILES>
NC(=O)C1=CC=NC=C1

>  <STRUCTURE_Parent_SMILES>
NC(=O)C1=CC=NC=C1

>  <STRUCTURE_InChI>
InChI=1/C6H6N2O/c7-6(9)5-1-3-8-4-2-5/h1-4H,(H2,7,9)/f/h7H2

>  <STRUCTURE_InChIKey>
VFQXVTODMYMSMJ-IAUQMDSZCI

>  <StudyType>
Carcinogenicity

>  <Endpoint>
TD50; Tumor Target Sites

>  <Species>
mouse

>  <ActivityScore_CPDBAS_Mouse>
0

>  <TD50_Mouse_Note>
no positive results

>  <TargetSites_Mouse_Male>
no positive results

>  <TargetSites_Mouse_Female>
no positive results

>  <ActivityOutcome_CPDBAS_Mouse>
inactive

>  <ActivityOutcome_CPDBAS_SingleCellCall>
inactive

>  <ActivityOutcome_CPDBAS_MultiCellCall>
inactive

>  <ActivityOutcome_CPDBAS_MultiCellCall_Details>
multisex inactive

>  <ChemicalPage_URL>
http://potency.berkeley.edu/chempages/ISONICOTINAMIDE.html

$$$$



  9  9  0  0  0  0  0  0  0  0999 V2000
    0.0000   -2.3037    0.0000 O   0  0  0  0  0  0  0  0  0  0  0  0
    0.6655   -1.1542    0.0000 C   0  0  0  0  0  0  0  0  0  0  0  0
    0.0000    0.0000    0.0000 O   0  0  0  0  0  0  0  0  0  0  0  0
    1.9965   -1.1542    0.0000 C   0  0  0  0  0  0  0  0  0  0  0  0
    2.6574    0.0000    0.0000 C   0  0  0  0  0  0  0  0  0  0  0  0
    3.9884    0.0000    0.0000 C   0  0  0  0  0  0  0  0  0  0  0  0
    4.6539   -1.1542    0.0000 N   0  0  0  0  0  0  0  0  0  0  0  0
    3.9884   -2.3037    0.0000 C   0  0  0  0  0  0  0  0  0  0  0  0
    2.6574   -2.3037    0.0000 C   0  0  0  0  0  0  0  0  0  0  0  0
  1  2  1  0  0  0  0
  2  3  2  0  0  0  0
  2  4  1  0  0  0  0
  4  5  2  0  0  0  0
  4  9  1  0  0  0  0
  5  6  1  0  0  0  0
  6  7  2  0  0  0  0
  7  8  1  0  0  0  0
  8  9  2  0  0  0  0
M  END
>  <DSSTox_RID>
20757

>  <DSSTox_CID>
757

>  <DSSTox_Generic_SID>
20757

>  <DSSTox_FileID>
792_CPDBAS_v5d

>  <STRUCTURE_Formula>
C6H5NO2

>  <STRUCTURE_MolecularWeight>
123.111

>  <STRUCTURE_ChemicalType>
defined organic

>  <STRUCTURE_TestedForm_DefinedOrganic>
parent

>  <STRUCTURE_Shown>
tested chemical

>  <TestSubstance_ChemicalName>
Isonicotinic acid

>  <TestSubstance_CASRN>
55-22-1

>  <TestSubstance_Description>
single chemical compound

>  <STRUCTURE_ChemicalName_IUPAC>
pyridine-4-carboxylic acid

>  <STRUCTURE_SMILES>
OC(=O)C1=CC=NC=C1

>  <STRUCTURE_Parent_SMILES>
OC(=O)C1=CC=NC=C1

>  <STRUCTURE_InChI>
InChI=1/C6H5NO2/c8-6(9)5-1-3-7-4-2-5/h1-4H,(H,8,9)/f/h8H

>  <STRUCTURE_InChIKey>
TWBYWOBDOCUKOW-FZOZFQFYCA

>  <StudyType>
Carcinogenicity

>  <Endpoint>
TD50; Tumor Target Sites

>  <Species>
mouse; hamster

>  <ActivityScore_CPDBAS_Mouse>
0

>  <TD50_Mouse_Note>
no positive results

>  <TargetSites_Mouse_Male>
no positive results

>  <TargetSites_Mouse_Female>
no positive results

>  <ActivityOutcome_CPDBAS_Mouse>
inactive

>  <ActivityScore_CPDBAS_Hamster>
0

>  <TD50_Hamster_Note>
no positive results

>  <TargetSites_Hamster_Male>
no positive results

>  <TargetSites_Hamster_Female>
no positive results

>  <ActivityOutcome_CPDBAS_Hamster>
inactive

>  <ActivityOutcome_CPDBAS_SingleCellCall>
inactive

>  <ActivityOutcome_CPDBAS_MultiCellCall>
inactive

>  <ActivityOutcome_CPDBAS_MultiCellCall_Details>
multisex inactive; multispecies inactive

>  <ChemicalPage_URL>
http://potency.berkeley.edu/chempages/ISONICOTINIC%20ACID.html

$$$$



 20 21  0  0  0  0  0  0  0  0999 V2000
    0.0000   -3.4579    0.0000 C   0  0  0  0  0  0  0  0  0  0  0  0
    0.6597   -2.3088    0.0000 O   0  0  0  0  0  0  0  0  0  0  0  0
    1.9896   -2.3088    0.0000 C   0  0  0  0  0  0  0  0  0  0  0  0
    2.6600   -1.1597    0.0000 C   0  0  0  0  0  0  0  0  0  0  0  0
    1.9896    0.0000    0.0000 O   0  0  0  0  0  0  0  0  0  0  0  0
    3.9899   -1.1597    0.0000 C   0  0  0  0  0  0  0  0  0  0  0  0
    4.6602   -2.3088    0.0000 C   0  0  0  0  0  0  0  0  0  0  0  0
    3.9899   -3.4579    0.0000 C   0  0  0  0  0  0  0  0  0  0  0  0
    2.6600   -3.4579    0.0000 C   0  0  0  0  0  0  0  0  0  0  0  0
    4.6602   -4.6070    0.0000 C   0  0  0  0  0  0  0  0  0  0  0  0
    5.9902   -4.6070    0.0000 N   0  0  0  0  0  0  0  0  0  0  0  0
    6.6499   -5.7668    0.0000 N   0  0  0  0  0  0  0  0  0  0  0  0
    7.9799   -5.7668    0.0000 C   0  0  0  0  0  0  0  0  0  0  0  0
    8.6502   -6.9159    0.0000 O   0  0  0  0  0  0  0  0  0  0  0  0
    8.6502   -4.6070    0.0000 C   0  0  0  0  0  0  0  0  0  0  0  0
    7.9799   -3.4579    0.0000 C   0  0  0  0  0  0  0  0  0  0  0  0
    8.6502   -2.3088    0.0000 C   0  0  0  0  0  0  0  0  0  0  0  0
    9.9695   -2.3088    0.0000 N   0  0  0  0  0  0  0  0  0  0  0  0
   10.6398   -3.4579    0.0000 C   0  0  0  0  0  0  0  0  0  0  0  0
    9.9695   -4.6070    0.0000 C   0  0  0  0  0  0  0  0  0  0  0  0
  1  2  1  0  0  0  0
  2  3  1  0  0  0  0
  3  4  2  0  0  0  0
  3  9  1  0  0  0  0
  4  5  1  0  0  0  0
  4  6  1  0  0  0  0
  6  7  2  0  0  0  0
  7  8  1  0  0  0  0
  8  9  2  0  0  0  0
  8 10  1  0  0  0  0
 10 11  2  0  0  0  0
 11 12  1  0  0  0  0
 12 13  1  0  0  0  0
 13 14  2  0  0  0  0
 13 15  1  0  0  0  0
 15 16  2  0  0  0  0
 15 20  1  0  0  0  0
 16 17  1  0  0  0  0
 17 18  2  0  0  0  0
 18 19  1  0  0  0  0
 19 20  2  0  0  0  0
M  END
>  <DSSTox_RID>
20758

>  <DSSTox_CID>
758

>  <DSSTox_Generic_SID>
20758

>  <DSSTox_FileID>
793_CPDBAS_v5d

>  <STRUCTURE_Formula>
C14H13N3O3

>  <STRUCTURE_MolecularWeight>
271.275

>  <STRUCTURE_ChemicalType>
defined organic

>  <STRUCTURE_TestedForm_DefinedOrganic>
parent

>  <STRUCTURE_Shown>
tested chemical

>  <TestSubstance_ChemicalName>
Isonicotinic acid vanillylidenehydrazide

>  <TestSubstance_CASRN>
149-17-7

>  <TestSubstance_Description>
single chemical compound

>  <STRUCTURE_ChemicalName_IUPAC>
N'-{(1E)-[4-hydroxy-3-(methyloxy)phenyl]methylidene}pyridine-4-carbohydrazide

>  <STRUCTURE_SMILES>
COC1=C(O)C=CC(=C1)C=NNC(=O)C2=CC=NC=C2

>  <STRUCTURE_Parent_SMILES>
COC1=C(O)C=CC(=C1)C=NNC(=O)C2=CC=NC=C2

>  <STRUCTURE_InChI>
InChI=1/C14H13N3O3/c1-20-13-8-10(2-3-12(13)18)9-16-17-14(19)11-4-6-15-7-5-11/h2-9,18H,1H3,(H,17,19)/b16-9+/f/h17H

>  <STRUCTURE_InChIKey>
PSWOBQSIXLVPDV-QPQGHXPGDW

>  <StudyType>
Carcinogenicity

>  <Endpoint>
TD50; Tumor Target Sites

>  <Species>
mouse

>  <TD50_Mouse_mg>
27.4

>  <TD50_Mouse_mmol>
0.101

>  <ActivityScore_CPDBAS_Mouse>
39

>  <TargetSites_Mouse_BothSexes>
liver; mammary gland

>  <ActivityOutcome_CPDBAS_Mouse>
active

>  <ActivityOutcome_CPDBAS_SingleCellCall>
active

>  <ActivityOutcome_CPDBAS_MultiCellCall>
active

>  <ActivityOutcome_CPDBAS_MultiCellCall_Details>
multisite active

>  <ChemicalPage_URL>
http://potency.berkeley.edu/chempages/ISONICOTINIC%20ACID%20VANILLYLIDENEHYDRAZIDE.html

$$$$



 10 10  0  0  0  0  0  0  0  0999 V2000
    0.8533   -4.5763    0.0000 C   0  0  0  0  0  0  0  0  0  0  0  0
    1.3109   -3.3274    0.0000 C   0  0  0  0  0  0  0  0  0  0  0  0
    1.3109   -1.9974    0.0000 C   0  0  0  0  0  0  0  0  0  0  0  0
    2.4645   -1.3300    0.0000 C   0  0  0  0  0  0  0  0  0  0  0  0
    3.6134   -1.9974    0.0000 C   0  0  0  0  0  0  0  0  0  0  0  0
    3.6134   -3.3274    0.0000 C   0  0  0  0  0  0  0  0  0  0  0  0
    4.7670   -3.9900    0.0000 O   0  0  0  0  0  0  0  0  0  0  0  0
    2.4645   -3.9900    0.0000 C   0  0  0  0  0  0  0  0  0  0  0  0
    2.4645    0.0000    0.0000 C   0  0  0  0  0  0  0  0  0  0  0  0
    0.0000   -3.0938    0.0000 C   0  0  0  0  0  0  0  0  0  0  0  0
  1  2  1  0  0  0  0
  2  3  1  0  0  0  0
  2  8  1  0  0  0  0
  2 10  1  0  0  0  0
  3  4  1  0  0  0  0
  4  5  2  0  0  0  0
  4  9  1  0  0  0  0
  5  6  1  0  0  0  0
  6  7  2  0  0  0  0
  6  8  1  0  0  0  0
M  END
>  <DSSTox_RID>
20759

>  <DSSTox_CID>
759

>  <DSSTox_Generic_SID>
20759

>  <DSSTox_FileID>
794_CPDBAS_v5d

>  <STRUCTURE_Formula>
C9H14O

>  <STRUCTURE_MolecularWeight>
138.2069

>  <STRUCTURE_ChemicalType>
defined organic

>  <STRUCTURE_TestedForm_DefinedOrganic>
parent

>  <STRUCTURE_Shown>
tested chemical

>  <TestSubstance_ChemicalName>
Isophorone

>  <TestSubstance_CASRN>
78-59-1

>  <TestSubstance_Description>
single chemical compound

>  <STRUCTURE_ChemicalName_IUPAC>
3,5,5-trimethylcyclohex-2-en-1-one

>  <STRUCTURE_SMILES>
CC1(CC(=CC(=O)C1)C)C

>  <STRUCTURE_Parent_SMILES>
CC1(CC(=CC(=O)C1)C)C

>  <STRUCTURE_InChI>
InChI=1/C9H14O/c1-7-4-8(10)6-9(2,3)5-7/h4H,5-6H2,1-3H3

>  <STRUCTURE_InChIKey>
HJOVHMDZYOCNQW-UHFFFAOYAC

>  <StudyType>
Carcinogenicity

>  <Endpoint>
TD50; Tumor Target Sites

>  <Species>
rat; mouse

>  <ActivityOutcome_CPDBAS_Mutagenicity>
inactive

>  <TD50_Rat_mg>
1210

>  <TD50_Rat_mmol>
8.75

>  <ActivityScore_CPDBAS_Rat>
16

>  <TargetSites_Rat_Male>
kidney; preputial gland

>  <TargetSites_Rat_Female>
no positive results

>  <ActivityOutcome_CPDBAS_Rat>
active

>  <ActivityScore_CPDBAS_Mouse>
0

>  <TD50_Mouse_Note>
no positive results

>  <TargetSites_Mouse_Male>
no positive results

>  <TargetSites_Mouse_Female>
no positive results

>  <ActivityOutcome_CPDBAS_Mouse>
inactive

>  <ActivityOutcome_CPDBAS_SingleCellCall>
active

>  <ActivityOutcome_CPDBAS_MultiCellCall>
active

>  <ActivityOutcome_CPDBAS_MultiCellCall_Details>
multisite active

>  <NTP_TechnicalReport>
TR 291

>  <ChemicalPage_URL>
http://potency.berkeley.edu/chempages/ISOPHORONE.html

$$$$



 14 14  0  0  0  0  0  0  0  0999 V2000
    5.8349   -1.0293    0.0000 Cl  0  0  0  0  0  0  0  0  0  0  0  0
    4.5243   -1.2567    0.0000 C   0  0  0  0  0  0  0  0  0  0  0  0
    4.0694   -2.5075    0.0000 C   0  0  0  0  0  0  0  0  0  0  0  0
    2.7588   -2.7409    0.0000 N   0  0  0  0  0  0  0  0  0  0  0  0
    2.3040   -3.9916    0.0000 P   0  0  3  0  0  0  0  0  0  0  0  0
    3.6146   -4.2191    0.0000 O   0  0  0  0  0  0  0  0  0  0  0  0
    2.3040   -5.3202    0.0000 O   0  0  0  0  0  0  0  0  0  0  0  0
    1.1490   -5.9845    0.0000 C   0  0  0  0  0  0  0  0  0  0  0  0
    0.0000   -5.3202    0.0000 C   0  0  0  0  0  0  0  0  0  0  0  0
    0.0000   -3.9916    0.0000 C   0  0  0  0  0  0  0  0  0  0  0  0
    1.1490   -3.3274    0.0000 N   0  0  0  0  0  0  0  0  0  0  0  0
    1.1490   -1.9928    0.0000 C   0  0  0  0  0  0  0  0  0  0  0  0
    0.0000   -1.3286    0.0000 C   0  0  0  0  0  0  0  0  0  0  0  0
    0.0000    0.0000    0.0000 Cl  0  0  0  0  0  0  0  0  0  0  0  0
  1  2  1  0  0  0  0
  2  3  1  0  0  0  0
  3  4  1  0  0  0  0
  4  5  1  0  0  0  0
  5  6  2  0  0  0  0
  5  7  1  0  0  0  0
  5 11  1  0  0  0  0
  7  8  1  0  0  0  0
  8  9  1  0  0  0  0
  9 10  1  0  0  0  0
 10 11  1  0  0  0  0
 11 12  1  0  0  0  0
 12 13  1  0  0  0  0
 13 14  1  0  0  0  0
M  END
>  <DSSTox_RID>
20760

>  <DSSTox_CID>
760

>  <DSSTox_Generic_SID>
20760

>  <DSSTox_FileID>
795_CPDBAS_v5d

>  <STRUCTURE_Formula>
C7H15Cl2N2O2P

>  <STRUCTURE_MolecularWeight>
261.086

>  <STRUCTURE_ChemicalType>
defined organic

>  <STRUCTURE_TestedForm_DefinedOrganic>
parent

>  <STRUCTURE_Shown>
tested chemical

>  <TestSubstance_ChemicalName>
Isophosphamide

>  <TestSubstance_CASRN>
3778-73-2

>  <TestSubstance_Description>
single chemical compound

>  <STRUCTURE_ChemicalName_IUPAC>
N,3-bis(2-chloroethyl)-1,3,2-oxazaphosphinan-2-amine 2-oxide

>  <STRUCTURE_SMILES>
ClCCN[P]1(=O)OCCCN1CCCl

>  <STRUCTURE_Parent_SMILES>
ClCCN[P]1(=O)OCCCN1CCCl

>  <STRUCTURE_InChI>
InChI=1/C7H15Cl2N2O2P/c8-2-4-10-14(12)11(6-3-9)5-1-7-13-14/h1-7H2,(H,10,12)/f/h10H

>  <STRUCTURE_InChIKey>
HOMGKSMUEGBAAB-KZFATGLACG

>  <StudyType>
Carcinogenicity

>  <Endpoint>
TD50; Tumor Target Sites

>  <Species>
rat; mouse

>  <ActivityOutcome_CPDBAS_Mutagenicity>
active

>  <TD50_Rat_mg>
0.739

>  <TD50_Rat_mmol>
0.00283

>  <ActivityScore_CPDBAS_Rat>
52

>  <TD50_Rat_Note>
positive test results only by intraperitoneal or intravenous injection

>  <TargetSites_Rat_Male>
no positive results

>  <TargetSites_Rat_Female>
uterus

>  <ActivityOutcome_CPDBAS_Rat>
active

>  <TD50_Mouse_mg>
5.06

>  <TD50_Mouse_mmol>
0.0194

>  <ActivityScore_CPDBAS_Mouse>
48

>  <TD50_Mouse_Note>
positive test results only by intraperitoneal or intravenous injection

>  <TargetSites_Mouse_Male>
no positive results

>  <TargetSites_Mouse_Female>
hematopoietic system

>  <ActivityOutcome_CPDBAS_Mouse>
active

>  <ActivityOutcome_CPDBAS_SingleCellCall>
active

>  <ActivityOutcome_CPDBAS_MultiCellCall>
active

>  <ActivityOutcome_CPDBAS_MultiCellCall_Details>
multisite active; multisex active; multispecies active

>  <NTP_TechnicalReport>
TR 32

>  <ChemicalPage_URL>
http://potency.berkeley.edu/chempages/ISOPHOSPHAMIDE.html

$$$$



  5  4  0  0  0  0  0  0  0  0999 V2000
    3.4567   -1.9945    0.0000 C   0  0  0  0  0  0  0  0  0  0  0  0
    2.3056   -1.3308    0.0000 C   0  0  0  0  0  0  0  0  0  0  0  0
    2.3056    0.0000    0.0000 C   0  0  0  0  0  0  0  0  0  0  0  0
    1.1511   -1.9945    0.0000 C   0  0  0  0  0  0  0  0  0  0  0  0
    0.0000   -1.3308    0.0000 C   0  0  0  0  0  0  0  0  0  0  0  0
  1  2  1  0  0  0  0
  2  3  2  0  0  0  0
  2  4  1  0  0  0  0
  4  5  2  0  0  0  0
M  END
>  <DSSTox_RID>
20761

>  <DSSTox_CID>
761

>  <DSSTox_Generic_SID>
20761

>  <DSSTox_FileID>
796_CPDBAS_v5d

>  <STRUCTURE_Formula>
C5H8

>  <STRUCTURE_MolecularWeight>
68.117

>  <STRUCTURE_ChemicalType>
defined organic

>  <STRUCTURE_TestedForm_DefinedOrganic>
parent

>  <STRUCTURE_Shown>
tested chemical

>  <TestSubstance_ChemicalName>
Isoprene

>  <TestSubstance_CASRN>
78-79-5

>  <TestSubstance_Description>
single chemical compound

>  <STRUCTURE_ChemicalName_IUPAC>
isoprene

>  <STRUCTURE_SMILES>
CC(=C)C=C

>  <STRUCTURE_Parent_SMILES>
CC(=C)C=C

>  <STRUCTURE_InChI>
InChI=1/C5H8/c1-4-5(2)3/h4H,1-2H2,3H3

>  <STRUCTURE_InChIKey>
RRHGJUQNOFWUDK-UHFFFAOYAS

>  <StudyType>
Carcinogenicity

>  <Endpoint>
TD50; Tumor Target Sites

>  <Species>
rat; mouse

>  <ActivityOutcome_CPDBAS_Mutagenicity>
inactive

>  <TD50_Rat_mg>
313

>  <TD50_Rat_mmol>
4.6

>  <ActivityScore_CPDBAS_Rat>
19

>  <TD50_Rat_Note>
TD50 is harmonic mean of more than one positive test

>  <TargetSites_Rat_Male>
kidney; mammary gland; testes

>  <TargetSites_Rat_Female>
mammary gland

>  <ActivityOutcome_CPDBAS_Rat>
active

>  <TD50_Mouse_mg>
274

>  <TD50_Mouse_mmol>
4.02

>  <ActivityScore_CPDBAS_Mouse>
21

>  <TD50_Mouse_Note>
TD50 is harmonic mean of more than one positive test

>  <TargetSites_Mouse_Male>
harderian gland; hematopoietic system; liver; lung; stomach; vascular system

>  <TargetSites_Mouse_Female>
harderian gland; pituitary gland; vascular system

>  <ActivityOutcome_CPDBAS_Mouse>
active

>  <ActivityOutcome_CPDBAS_SingleCellCall>
active

>  <ActivityOutcome_CPDBAS_MultiCellCall>
active

>  <ActivityOutcome_CPDBAS_MultiCellCall_Details>
multisite active; multisex active; multispecies active

>  <Note_CPDBAS>
Rat added v5a

>  <NTP_TechnicalReport>
TR 486; additional results included in CPDB

>  <ChemicalPage_URL>
http://potency.berkeley.edu/chempages/ISOPRENE.html

$$$$



  4  3  0  0  0  0  0  0  0  0999 V2000
    1.1518    0.0000    0.0000 O   0  0  0  0  0  0  0  0  0  0  0  0
    1.1518   -1.3292    0.0000 C   0  0  0  0  0  0  0  0  0  0  0  0
    0.0000   -1.9950    0.0000 C   0  0  0  0  0  0  0  0  0  0  0  0
    2.3037   -1.9950    0.0000 C   0  0  0  0  0  0  0  0  0  0  0  0
  1  2  1  0  0  0  0
  2  3  1  0  0  0  0
  2  4  1  0  0  0  0
M  END
>  <DSSTox_RID>
20762

>  <DSSTox_CID>
762

>  <DSSTox_Generic_SID>
20762

>  <DSSTox_FileID>
797_CPDBAS_v5d

>  <STRUCTURE_Formula>
C3H8O

>  <STRUCTURE_MolecularWeight>
60.095

>  <STRUCTURE_ChemicalType>
defined organic

>  <STRUCTURE_TestedForm_DefinedOrganic>
parent

>  <STRUCTURE_Shown>
tested chemical

>  <TestSubstance_ChemicalName>
Isopropanol

>  <TestSubstance_CASRN>
67-63-0

>  <TestSubstance_Description>
single chemical compound

>  <STRUCTURE_ChemicalName_IUPAC>
propan-2-ol

>  <STRUCTURE_SMILES>
OC(C)C

>  <STRUCTURE_Parent_SMILES>
OC(C)C

>  <STRUCTURE_InChI>
InChI=1/C3H8O/c1-3(2)4/h3-4H,1-2H3

>  <STRUCTURE_InChIKey>
KFZMGEQAYNKOFK-UHFFFAOYAH

>  <StudyType>
Carcinogenicity

>  <Endpoint>
TD50; Tumor Target Sites

>  <Species>
rat; mouse

>  <ActivityOutcome_CPDBAS_Mutagenicity>
inactive

>  <ActivityScore_CPDBAS_Rat>
0

>  <TD50_Rat_Note>
no positive results

>  <TargetSites_Rat_Male>
no positive results

>  <TargetSites_Rat_Female>
no positive results

>  <ActivityOutcome_CPDBAS_Rat>
inactive

>  <ActivityScore_CPDBAS_Mouse>
0

>  <TD50_Mouse_Note>
no positive results

>  <TargetSites_Mouse_Male>
no positive results

>  <TargetSites_Mouse_Female>
no positive results

>  <ActivityOutcome_CPDBAS_Mouse>
inactive

>  <ActivityOutcome_CPDBAS_SingleCellCall>
inactive

>  <ActivityOutcome_CPDBAS_MultiCellCall>
inactive

>  <ActivityOutcome_CPDBAS_MultiCellCall_Details>
multisex inactive; multispecies inactive

>  <Note_CPDBAS>
Rat added v3a; Mouse added v3a; chemical added v3a

>  <ChemicalPage_URL>
http://potency.berkeley.edu/chempages/ISOPROPANOL.html

$$$$



 17 18  0  0  0  0  0  0  0  0999 V2000
    9.2116   -0.6735    0.0000 C   0  0  0  0  0  0  0  0  0  0  0  0
    9.2116   -1.9998    0.0000 C   0  0  0  0  0  0  0  0  0  0  0  0
    8.0614   -2.6630    0.0000 O   0  0  0  0  0  0  0  0  0  0  0  0
    6.9113   -1.9998    0.0000 C   0  0  0  0  0  0  0  0  0  0  0  0
    5.7611   -2.6630    0.0000 C   0  0  0  0  0  0  0  0  0  0  0  0
    4.6006   -1.9998    0.0000 C   0  0  0  0  0  0  0  0  0  0  0  0
    4.6006   -0.6735    0.0000 C   0  0  0  0  0  0  0  0  0  0  0  0
    5.7611    0.0000    0.0000 C   0  0  0  0  0  0  0  0  0  0  0  0
    6.9113   -0.6735    0.0000 C   0  0  0  0  0  0  0  0  0  0  0  0
    3.4505    0.0000    0.0000 N   0  0  0  0  0  0  0  0  0  0  0  0
    2.3003   -0.6735    0.0000 C   0  0  0  0  0  0  0  0  0  0  0  0
    2.3003   -1.9998    0.0000 C   0  0  0  0  0  0  0  0  0  0  0  0
    1.1502   -2.6630    0.0000 C   0  0  0  0  0  0  0  0  0  0  0  0
    0.0000   -1.9998    0.0000 C   0  0  0  0  0  0  0  0  0  0  0  0
    0.0000   -0.6735    0.0000 C   0  0  0  0  0  0  0  0  0  0  0  0
    1.1502    0.0000    0.0000 C   0  0  0  0  0  0  0  0  0  0  0  0
   10.3618   -2.6630    0.0000 C   0  0  0  0  0  0  0  0  0  0  0  0
  1  2  1  0  0  0  0
  2  3  1  0  0  0  0
  2 17  1  0  0  0  0
  3  4  1  0  0  0  0
  4  5  2  0  0  0  0
  4  9  1  0  0  0  0
  5  6  1  0  0  0  0
  6  7  2  0  0  0  0
  7  8  1  0  0  0  0
  7 10  1  0  0  0  0
  8  9  2  0  0  0  0
 10 11  1  0  0  0  0
 11 12  2  0  0  0  0
 11 16  1  0  0  0  0
 12 13  1  0  0  0  0
 13 14  2  0  0  0  0
 14 15  1  0  0  0  0
 15 16  2  0  0  0  0
M  END
>  <DSSTox_RID>
20763

>  <DSSTox_CID>
763

>  <DSSTox_Generic_SID>
20763

>  <DSSTox_FileID>
798_CPDBAS_v5d

>  <STRUCTURE_Formula>
C15H17NO

>  <STRUCTURE_MolecularWeight>
227.3016

>  <STRUCTURE_ChemicalType>
defined organic

>  <STRUCTURE_TestedForm_DefinedOrganic>
parent

>  <STRUCTURE_Shown>
tested chemical

>  <TestSubstance_ChemicalName>
p-Isopropoxydiphenylamine

>  <TestSubstance_CASRN>
101-73-5

>  <TestSubstance_Description>
single chemical compound

>  <STRUCTURE_ChemicalName_IUPAC>
4-[(1-methylethyl)oxy]-N-phenylaniline

>  <STRUCTURE_SMILES>
CC(OC1=CC=C(C=C1)NC2=CC=CC=C2)C

>  <STRUCTURE_Parent_SMILES>
CC(OC1=CC=C(C=C1)NC2=CC=CC=C2)C

>  <STRUCTURE_InChI>
InChI=1/C15H17NO/c1-12(2)17-15-10-8-14(9-11-15)16-13-6-4-3-5-7-13/h3-12,16H,1-2H3

>  <STRUCTURE_InChIKey>
CVVFFUKULYKOJR-UHFFFAOYAO

>  <StudyType>
Carcinogenicity

>  <Endpoint>
TD50; Tumor Target Sites

>  <Species>
mouse

>  <ActivityOutcome_CPDBAS_Mutagenicity>
inactive

>  <ActivityScore_CPDBAS_Mouse>
0

>  <TD50_Mouse_Note>
no positive results

>  <TargetSites_Mouse_Male>
no positive results

>  <TargetSites_Mouse_Female>
no positive results

>  <ActivityOutcome_CPDBAS_Mouse>
inactive

>  <ActivityOutcome_CPDBAS_SingleCellCall>
inactive

>  <ActivityOutcome_CPDBAS_MultiCellCall>
inactive

>  <ActivityOutcome_CPDBAS_MultiCellCall_Details>
multisex inactive

>  <ChemicalPage_URL>
http://potency.berkeley.edu/chempages/p-ISOPROPOXYDIPHENYLAMINE.html

$$$$



 14 14  0  0  0  0  0  0  0  0999 V2000
    3.4524   -0.6629    0.0000 O   0  0  0  0  0  0  0  0  0  0  0  0
    3.4524   -1.9978    0.0000 C   0  0  0  0  0  0  0  0  0  0  0  0
    4.6031   -2.6606    0.0000 N   0  0  0  0  0  0  0  0  0  0  0  0
    5.7539   -1.9978    0.0000 C   0  0  0  0  0  0  0  0  0  0  0  0
    5.7539   -0.6629    0.0000 C   0  0  0  0  0  0  0  0  0  0  0  0
    6.9047    0.0000    0.0000 C   0  0  0  0  0  0  0  0  0  0  0  0
    8.0555   -0.6629    0.0000 C   0  0  0  0  0  0  0  0  0  0  0  0
    8.0555   -1.9978    0.0000 C   0  0  0  0  0  0  0  0  0  0  0  0
    6.9047   -2.6606    0.0000 C   0  0  0  0  0  0  0  0  0  0  0  0
    9.2063   -2.6606    0.0000 Cl  0  0  0  0  0  0  0  0  0  0  0  0
    2.3016   -2.6606    0.0000 O   0  0  0  0  0  0  0  0  0  0  0  0
    1.1508   -1.9978    0.0000 C   0  0  0  0  0  0  0  0  0  0  0  0
    0.0000   -2.6606    0.0000 C   0  0  0  0  0  0  0  0  0  0  0  0
    1.1508   -0.6629    0.0000 C   0  0  0  0  0  0  0  0  0  0  0  0
  1  2  2  0  0  0  0
  2  3  1  0  0  0  0
  2 11  1  0  0  0  0
  3  4  1  0  0  0  0
  4  5  2  0  0  0  0
  4  9  1  0  0  0  0
  5  6  1  0  0  0  0
  6  7  2  0  0  0  0
  7  8  1  0  0  0  0
  8  9  2  0  0  0  0
  8 10  1  0  0  0  0
 11 12  1  0  0  0  0
 12 13  1  0  0  0  0
 12 14  1  0  0  0  0
M  END
>  <DSSTox_RID>
20764

>  <DSSTox_CID>
764

>  <DSSTox_Generic_SID>
20764

>  <DSSTox_FileID>
799_CPDBAS_v5d

>  <STRUCTURE_Formula>
C10H12ClNO2

>  <STRUCTURE_MolecularWeight>
213.6608

>  <STRUCTURE_ChemicalType>
defined organic

>  <STRUCTURE_TestedForm_DefinedOrganic>
parent

>  <STRUCTURE_Shown>
tested chemical

>  <TestSubstance_ChemicalName>
Isopropyl-N-(3-chlorophenyl) carbamate

>  <TestSubstance_CASRN>
101-21-3

>  <TestSubstance_Description>
single chemical compound

>  <STRUCTURE_ChemicalName_IUPAC>
1-methylethyl (3-chlorophenyl)carbamate

>  <STRUCTURE_SMILES>
O=C(NC1=CC=CC(=C1)Cl)OC(C)C

>  <STRUCTURE_Parent_SMILES>
O=C(NC1=CC=CC(=C1)Cl)OC(C)C

>  <STRUCTURE_InChI>
InChI=1/C10H12ClNO2/c1-7(2)14-10(13)12-9-5-3-4-8(11)6-9/h3-7H,1-2H3,(H,12,13)/f/h12H

>  <STRUCTURE_InChIKey>
CWJSHJJYOPWUGX-XWKXFZRBCN

>  <StudyType>
Carcinogenicity

>  <Endpoint>
TD50; Tumor Target Sites

>  <Species>
rat; mouse; hamster

>  <ActivityScore_CPDBAS_Rat>
0

>  <TD50_Rat_Note>
no positive results

>  <TargetSites_Rat_Male>
no positive results

>  <TargetSites_Rat_Female>
no positive results

>  <ActivityOutcome_CPDBAS_Rat>
inactive

>  <ActivityScore_CPDBAS_Mouse>
0

>  <TD50_Mouse_Note>
no positive results

>  <TargetSites_Mouse_Male>
no positive results

>  <TargetSites_Mouse_Female>
no positive results

>  <ActivityOutcome_CPDBAS_Mouse>
inactive

>  <ActivityScore_CPDBAS_Hamster>
0

>  <TD50_Hamster_Note>
no positive results

>  <TargetSites_Hamster_Male>
no positive results

>  <TargetSites_Hamster_Female>
no positive results

>  <ActivityOutcome_CPDBAS_Hamster>
inactive

>  <ActivityOutcome_CPDBAS_SingleCellCall>
inactive

>  <ActivityOutcome_CPDBAS_MultiCellCall>
inactive

>  <ActivityOutcome_CPDBAS_MultiCellCall_Details>
multisex inactive; multispecies inactive

>  <ChemicalPage_URL>
http://potency.berkeley.edu/chempages/ISOPROPYL-N-(3-CHLOROPHENYL)CARBAMATE.html

$$$$



 15 15  0  0  0  0  0  0  0  0999 V2000
    2.7545   -5.6412    0.0000 N   0  0  0  0  0  0  0  0  0  0  0  0
    1.4915   -5.2323    0.0000 C   0  0  0  0  0  0  0  0  0  0  0  0
    1.4915   -3.9031    0.0000 C   0  0  0  0  0  0  0  0  0  0  0  0
    0.4150   -6.0141    0.0000 C   0  0  0  0  0  0  0  0  0  0  0  0
    3.5363   -4.5647    0.0000 N   0  0  0  0  0  0  0  0  0  0  0  0
    4.8654   -4.5647    0.0000 C   0  0  0  0  0  0  0  0  0  0  0  0
    5.5330   -3.4160    0.0000 C   0  0  0  0  0  0  0  0  0  0  0  0
    5.5330   -5.7194    0.0000 C   0  0  0  0  0  0  0  0  0  0  0  0
    2.7545   -3.4882    0.0000 C   0  0  0  0  0  0  0  0  0  0  0  0
    3.1634   -2.2252    0.0000 O   0  0  0  0  0  0  0  0  0  0  0  0
    2.2252   -1.2870    0.0000 C   0  0  0  0  0  0  0  0  0  0  0  0
    2.5680    0.0000    0.0000 O   0  0  0  0  0  0  0  0  0  0  0  0
    0.9382   -1.6298    0.0000 N   0  0  0  0  0  0  0  0  0  0  0  0
    0.5954   -2.9168    0.0000 C   0  0  0  0  0  0  0  0  0  0  0  0
    0.0000   -0.6856    0.0000 C   0  0  0  0  0  0  0  0  0  0  0  0
  1  2  2  0  0  0  0
  1  5  1  0  0  0  0
  2  3  1  0  0  0  0
  2  4  1  0  0  0  0
  3  9  2  0  0  0  0
  5  6  1  0  0  0  0
  5  9  1  0  0  0  0
  6  7  1  0  0  0  0
  6  8  1  0  0  0  0
  9 10  1  0  0  0  0
 10 11  1  0  0  0  0
 11 12  2  0  0  0  0
 11 13  1  0  0  0  0
 13 14  1  0  0  0  0
 13 15  1  0  0  0  0
M  END
>  <DSSTox_RID>
20765

>  <DSSTox_CID>
765

>  <DSSTox_Generic_SID>
20765

>  <DSSTox_FileID>
800_CPDBAS_v5d

>  <STRUCTURE_Formula>
C10H17N3O2

>  <STRUCTURE_MolecularWeight>
211.2632

>  <STRUCTURE_ChemicalType>
defined organic

>  <STRUCTURE_TestedForm_DefinedOrganic>
parent

>  <STRUCTURE_Shown>
tested chemical

>  <TestSubstance_ChemicalName>
1-Isopropyl-3-methyl-5-pyrazolyldimethyl carbamate

>  <TestSubstance_CASRN>
119-38-0

>  <TestSubstance_Description>
single chemical compound

>  <STRUCTURE_ChemicalName_IUPAC>
3-methyl-1-(1-methylethyl)-1H-pyrazol-5-yl dimethylcarbamate

>  <STRUCTURE_SMILES>
N(=C(C=1)C)N(C(C)C)C=1OC(=O)N(C)C

>  <STRUCTURE_Parent_SMILES>
N(=C(C=1)C)N(C(C)C)C=1OC(=O)N(C)C

>  <STRUCTURE_InChI>
InChI=1/C10H17N3O2/c1-7(2)13-9(6-8(3)11-13)15-10(14)12(4)5/h6-7H,1-5H3

>  <STRUCTURE_InChIKey>
RNNBHZYEKNHLKT-UHFFFAOYAD

>  <StudyType>
Carcinogenicity

>  <Endpoint>
TD50; Tumor Target Sites

>  <Species>
mouse

>  <ActivityScore_CPDBAS_Mouse>
0

>  <TD50_Mouse_Note>
no positive results

>  <TargetSites_Mouse_Male>
no positive results

>  <TargetSites_Mouse_Female>
no positive results

>  <ActivityOutcome_CPDBAS_Mouse>
inactive

>  <ActivityOutcome_CPDBAS_SingleCellCall>
inactive

>  <ActivityOutcome_CPDBAS_MultiCellCall>
inactive

>  <ActivityOutcome_CPDBAS_MultiCellCall_Details>
multisex inactive

>  <ChemicalPage_URL>
http://potency.berkeley.edu/chempages/1-ISOPROPYL-3-METHYL-s-PYRAZOLYLDIMETHYL%20CARBAMATE.html

$$$$



 13 13  0  0  0  0  0  0  0  0999 V2000
    3.4601   -0.6694    0.0000 O   0  0  0  0  0  0  0  0  0  0  0  0
    3.4601   -2.0002    0.0000 C   0  0  0  0  0  0  0  0  0  0  0  0
    4.6054   -2.6616    0.0000 N   0  0  0  0  0  0  0  0  0  0  0  0
    5.7587   -2.0002    0.0000 C   0  0  0  0  0  0  0  0  0  0  0  0
    5.7587   -0.6694    0.0000 C   0  0  0  0  0  0  0  0  0  0  0  0
    6.9121    0.0000    0.0000 C   0  0  0  0  0  0  0  0  0  0  0  0
    8.0654   -0.6694    0.0000 C   0  0  0  0  0  0  0  0  0  0  0  0
    8.0654   -2.0002    0.0000 C   0  0  0  0  0  0  0  0  0  0  0  0
    6.9121   -2.6616    0.0000 C   0  0  0  0  0  0  0  0  0  0  0  0
    2.3067   -2.6616    0.0000 O   0  0  0  0  0  0  0  0  0  0  0  0
    1.1534   -2.0002    0.0000 C   0  0  0  0  0  0  0  0  0  0  0  0
    0.0000   -2.6616    0.0000 C   0  0  0  0  0  0  0  0  0  0  0  0
    1.1534   -0.6694    0.0000 C   0  0  0  0  0  0  0  0  0  0  0  0
  1  2  2  0  0  0  0
  2  3  1  0  0  0  0
  2 10  1  0  0  0  0
  3  4  1  0  0  0  0
  4  5  2  0  0  0  0
  4  9  1  0  0  0  0
  5  6  1  0  0  0  0
  6  7  2  0  0  0  0
  7  8  1  0  0  0  0
  8  9  2  0  0  0  0
 10 11  1  0  0  0  0
 11 12  1  0  0  0  0
 11 13  1  0  0  0  0
M  END
>  <DSSTox_RID>
20766

>  <DSSTox_CID>
766

>  <DSSTox_Generic_SID>
20766

>  <DSSTox_FileID>
801_CPDBAS_v5d

>  <STRUCTURE_Formula>
C10H13NO2

>  <STRUCTURE_MolecularWeight>
179.2182

>  <STRUCTURE_ChemicalType>
defined organic

>  <STRUCTURE_TestedForm_DefinedOrganic>
parent

>  <STRUCTURE_Shown>
tested chemical

>  <TestSubstance_ChemicalName>
Isopropyl-N-phenyl carbamate

>  <TestSubstance_CASRN>
122-42-9

>  <TestSubstance_Description>
single chemical compound

>  <STRUCTURE_ChemicalName_IUPAC>
1-methylethyl phenylcarbamate

>  <STRUCTURE_SMILES>
O=C(NC1=CC=CC=C1)OC(C)C

>  <STRUCTURE_Parent_SMILES>
O=C(NC1=CC=CC=C1)OC(C)C

>  <STRUCTURE_InChI>
InChI=1/C10H13NO2/c1-8(2)13-10(12)11-9-6-4-3-5-7-9/h3-8H,1-2H3,(H,11,12)/f/h11H

>  <STRUCTURE_InChIKey>
VXPLXMJHHKHSOA-WXRBYKJCCY

>  <StudyType>
Carcinogenicity

>  <Endpoint>
TD50; Tumor Target Sites

>  <Species>
mouse; hamster

>  <ActivityScore_CPDBAS_Mouse>
0

>  <TD50_Mouse_Note>
no positive results

>  <TargetSites_Mouse_Male>
no positive results

>  <TargetSites_Mouse_Female>
no positive results

>  <ActivityOutcome_CPDBAS_Mouse>
inactive

>  <ActivityScore_CPDBAS_Hamster>
0

>  <TD50_Hamster_Note>
no positive results

>  <TargetSites_Hamster_Male>
no positive results

>  <TargetSites_Hamster_Female>
no positive results

>  <ActivityOutcome_CPDBAS_Hamster>
inactive

>  <ActivityOutcome_CPDBAS_SingleCellCall>
inactive

>  <ActivityOutcome_CPDBAS_MultiCellCall>
inactive

>  <ActivityOutcome_CPDBAS_MultiCellCall_Details>
multisex inactive; multispecies inactive

>  <ChemicalPage_URL>
http://potency.berkeley.edu/chempages/ISOPROPYL-N-PHENYL%20CARBAMATE.html

$$$$



 12 13  0  0  0  0  0  0  0  0999 V2000
    7.8079   -2.6625    0.0000 C   0  0  0  0  0  0  0  0  0  0  0  0
    6.6523   -1.9988    0.0000 C   0  0  0  0  0  0  0  0  0  0  0  0
    5.5046   -2.6625    0.0000 C   0  0  0  0  0  0  0  0  0  0  0  0
    4.3490   -1.9988    0.0000 C   0  0  0  0  0  0  0  0  0  0  0  0
    3.2012   -2.6625    0.0000 C   0  0  0  0  0  0  0  0  0  0  0  0
    2.0457   -1.9988    0.0000 C   0  0  0  0  0  0  0  0  0  0  0  0
    2.0457   -0.6637    0.0000 C   0  0  0  0  0  0  0  0  0  0  0  0
    3.2012    0.0000    0.0000 C   0  0  0  0  0  0  0  0  0  0  0  0
    4.3490   -0.6637    0.0000 C   0  0  0  0  0  0  0  0  0  0  0  0
    0.7808   -0.2577    0.0000 O   0  0  0  0  0  0  0  0  0  0  0  0
    0.0000   -1.3351    0.0000 C   0  0  0  0  0  0  0  0  0  0  0  0
    0.7808   -2.4048    0.0000 O   0  0  0  0  0  0  0  0  0  0  0  0
  1  2  1  0  0  0  0
  2  3  2  0  0  0  0
  3  4  1  0  0  0  0
  4  5  2  0  0  0  0
  4  9  1  0  0  0  0
  5  6  1  0  0  0  0
  6  7  2  0  0  0  0
  6 12  1  0  0  0  0
  7  8  1  0  0  0  0
  7 10  1  0  0  0  0
  8  9  2  0  0  0  0
 10 11  1  0  0  0  0
 11 12  1  0  0  0  0
M  END
>  <DSSTox_RID>
20767

>  <DSSTox_CID>
767

>  <DSSTox_Generic_SID>
20767

>  <DSSTox_FileID>
802_CPDBAS_v5d

>  <STRUCTURE_Formula>
C10H10O2

>  <STRUCTURE_MolecularWeight>
162.1852

>  <STRUCTURE_ChemicalType>
defined organic

>  <STRUCTURE_TestedForm_DefinedOrganic>
parent

>  <STRUCTURE_Shown>
tested chemical

>  <TestSubstance_ChemicalName>
Isosafrole

>  <TestSubstance_CASRN>
120-58-1

>  <TestSubstance_Description>
single chemical compound

>  <ChemicalNote>
stereochem

>  <STRUCTURE_ChemicalName_IUPAC>
5-[(1E)-prop-1-en-1-yl]-1,3-benzodioxole

>  <STRUCTURE_SMILES>
C/C=C/C1=CC2=C(C=C1)OCO2

>  <STRUCTURE_Parent_SMILES>
C/C=C/C1=CC2=C(C=C1)OCO2

>  <STRUCTURE_InChI>
InChI=1/C10H10O2/c1-2-3-8-4-5-9-10(6-8)12-7-11-9/h2-6H,7H2,1H3/b3-2+

>  <STRUCTURE_InChIKey>
VHVOLFRBFDOUSH-NSCUHMNNBU

>  <StudyType>
Carcinogenicity

>  <Endpoint>
TD50; Tumor Target Sites

>  <Species>
mouse

>  <ActivityOutcome_CPDBAS_Mutagenicity>
inactive

>  <ActivityScore_CPDBAS_Mouse>
0

>  <TD50_Mouse_Note>
no positive results

>  <TargetSites_Mouse_Male>
no positive results

>  <TargetSites_Mouse_Female>
no positive results

>  <ActivityOutcome_CPDBAS_Mouse>
inactive

>  <ActivityOutcome_CPDBAS_SingleCellCall>
inactive

>  <ActivityOutcome_CPDBAS_MultiCellCall>
inactive

>  <ActivityOutcome_CPDBAS_MultiCellCall_Details>
multisex inactive

>  <ChemicalPage_URL>
http://potency.berkeley.edu/chempages/ISOSAFROLE.html

$$$$



 58 60  0  0  1  0  0  0  0  0999 V2000
    3.4539   -6.0068    0.0000 O   0  0  0  0  0  0  0  0  0  0  0  0
    3.4539   -7.3154    0.0000 C   0  0  0  0  0  0  0  0  0  0  0  0
    2.3169   -5.3203    0.0000 C   0  0  0  0  0  0  0  0  0  0  0  0
    2.3169   -7.9805    0.0000 O   0  0  0  0  0  0  0  0  0  0  0  0
    1.1585   -6.0068    0.0000 C   0  0  0  0  0  0  0  0  0  0  0  0
    1.1585   -7.3154    0.0000 C   0  0  1  0  0  0  0  0  0  0  0  0
    4.6124   -5.3203    0.0000 O   0  0  0  0  0  0  0  0  0  0  0  0
    5.7494   -6.0068    0.0000 C   0  0  3  0  0  0  0  0  0  0  0  0
    4.6124   -7.9805    0.0000 C   0  0  0  0  0  0  0  0  0  0  0  0
    5.7494   -7.3369    0.0000 C   0  0  1  0  0  0  0  0  0  0  0  0
    4.6124   -3.9902    0.0000 C   0  0  0  0  0  0  0  0  0  0  0  0
    2.3169   -3.9902    0.0000 C   0  0  0  0  0  0  0  0  0  0  0  0
    3.4539   -3.3252    0.0000 C   0  0  0  0  0  0  0  0  0  0  0  0
    6.9293   -5.3203    0.0000 C   0  0  2  0  0  0  0  0  0  0  0  0
    5.7494   -3.3252    0.0000 C   0  0  0  0  0  0  0  0  0  0  0  0
    6.9293   -3.9902    0.0000 C   0  0  2  0  0  0  0  0  0  0  0  0
    5.7494   -1.9951    0.0000 C   0  0  2  0  0  0  0  0  0  0  0  0
    3.4539   -2.0166    0.0000 C   0  0  0  0  0  0  0  0  0  0  0  0
    4.6124   -1.3301    0.0000 C   0  0  2  0  0  0  0  0  0  0  0  0
    0.0000   -7.9805    0.0000 C   0  0  0  0  0  0  0  0  0  0  0  0
    4.6124    0.0000    0.0000 O   0  0  0  0  0  0  0  0  0  0  0  0
    6.9293   -1.3301    0.0000 C   0  0  0  0  0  0  0  0  0  0  0  0
    8.0663   -3.3252    0.0000 C   0  0  0  0  0  0  0  0  0  0  0  0
    8.0663   -5.9854    0.0000 O   0  0  0  0  0  0  0  0  0  0  0  0
    6.9293   -7.9805    0.0000 O   0  0  0  0  0  0  0  0  0  0  0  0
    8.0663   -1.9951    0.0000 C   0  0  0  0  0  0  0  0  0  0  0  0
    9.2247   -1.3301    0.0000 O   0  0  0  0  0  0  0  0  0  0  0  0
    6.9293   -9.3320    0.0000 C   0  0  0  0  0  0  0  0  0  0  0  0
    8.0663   -9.9971    0.0000 O   0  0  0  0  0  0  0  0  0  0  0  0
    5.7494   -9.9971    0.0000 C   0  0  0  0  0  0  0  0  0  0  0  0
   12.0565   -5.9854    0.0000 C   0  0  2  0  0  0  0  0  0  0  0  0
   11.3915   -7.1224    0.0000 C   0  0  2  0  0  0  0  0  0  0  0  0
   11.3915   -4.8269    0.0000 C   0  0  1  0  0  0  0  0  0  0  0  0
   10.0614   -7.1224    0.0000 O   0  0  0  0  0  0  0  0  0  0  0  0
   10.0614   -4.8269    0.0000 C   0  0  2  0  0  0  0  0  0  0  0  0
    9.3964   -5.9854    0.0000 C   0  0  2  0  0  0  0  0  0  0  0  0
   12.0565   -8.2808    0.0000 C   0  0  0  0  0  0  0  0  0  0  0  0
   13.3866   -5.9854    0.0000 O   0  0  0  0  0  0  0  0  0  0  0  0
   12.0565   -3.6684    0.0000 N   0  0  0  0  0  0  0  0  0  0  0  0
   13.3866   -3.6684    0.0000 C   0  0  0  0  0  0  0  0  0  0  0  0
   11.3915   -2.5100    0.0000 C   0  0  0  0  0  0  0  0  0  0  0  0
    9.3964   -3.6684    0.0000 O   0  0  0  0  0  0  0  0  0  0  0  0
   16.8620   -6.6504    0.0000 C   0  0  1  0  0  0  0  0  0  0  0  0
   16.8620   -7.9805    0.0000 C   0  0  1  0  0  0  0  0  0  0  0  0
   15.7035   -5.9854    0.0000 C   0  0  0  0  0  0  0  0  0  0  0  0
   15.7035   -8.6455    0.0000 C   0  0  1  0  0  0  0  0  0  0  0  0
   14.5451   -6.6504    0.0000 C   0  0  1  0  0  0  0  0  0  0  0  0
   14.5451   -7.9805    0.0000 O   0  0  0  0  0  0  0  0  0  0  0  0
   17.9990   -8.6455    0.0000 O   0  0  0  0  0  0  0  0  0  0  0  0
   15.7035   -9.9756    0.0000 C   0  0  0  0  0  0  0  0  0  0  0  0
   17.5056   -5.5134    0.0000 O   0  0  0  0  0  0  0  0  0  0  0  0
   18.1063   -6.2428    0.0000 C   0  0  0  0  0  0  0  0  0  0  0  0
   19.1360   -7.9805    0.0000 C   0  0  0  0  0  0  0  0  0  0  0  0
   20.2944   -8.6455    0.0000 O   0  0  0  0  0  0  0  0  0  0  0  0
   19.1360   -6.6504    0.0000 C   0  0  0  0  0  0  0  0  0  0  0  0
   20.3159   -6.0068    0.0000 C   0  0  0  0  0  0  0  0  0  0  0  0
   20.3159   -4.6767    0.0000 C   0  0  0  0  0  0  0  0  0  0  0  0
   21.4529   -6.6504    0.0000 C   0  0  0  0  0  0  0  0  0  0  0  0
  1  2  2  0  0  0  0
  2  4  1  0  0  0  0
  2  9  1  0  0  0  0
  3  5  1  0  0  0  0
  3 12  2  0  0  0  0
  4  6  1  0  0  0  0
  5  6  1  0  0  0  0
  6 20  1  6  0  0  0
  7  8  1  0  0  0  0
  7 11  1  0  0  0  0
  8 10  1  0  0  0  0
  8 14  1  0  0  0  0
  9 10  1  0  0  0  0
 10 25  1  6  0  0  0
 12 13  1  0  0  0  0
 13 18  2  0  0  0  0
 14 16  1  0  0  0  0
 14 24  1  6  0  0  0
 15 16  1  0  0  0  0
 15 17  1  0  0  0  0
 16 23  1  6  0  0  0
 17 19  1  0  0  0  0
 17 22  1  6  0  0  0
 18 19  1  0  0  0  0
 19 21  1  6  0  0  0
 23 26  1  0  0  0  0
 36 24  1  1  0  0  0
 25 28  1  0  0  0  0
 26 27  2  0  0  0  0
 28 29  2  0  0  0  0
 28 30  1  0  0  0  0
 31 32  1  0  0  0  0
 31 33  1  0  0  0  0
 31 38  1  6  0  0  0
 32 34  1  0  0  0  0
 32 37  1  1  0  0  0
 33 35  1  0  0  0  0
 33 39  1  1  0  0  0
 34 36  1  0  0  0  0
 35 36  1  0  0  0  0
 35 42  1  6  0  0  0
 47 38  1  1  0  0  0
 39 40  1  0  0  0  0
 39 41  1  0  0  0  0
 43 44  1  0  0  0  0
 43 45  1  0  0  0  0
 43 51  1  1  0  0  0
 43 52  1  0  0  0  0
 44 46  1  0  0  0  0
 44 49  1  6  0  0  0
 45 47  1  0  0  0  0
 46 48  1  0  0  0  0
 46 50  1  6  0  0  0
 47 48  1  0  0  0  0
 49 53  1  0  0  0  0
 53 54  2  0  0  0  0
 53 55  1  0  0  0  0
 55 56  1  0  0  0  0
 56 57  1  0  0  0  0
 56 58  1  0  0  0  0
M  END
>  <DSSTox_RID>
40803

>  <DSSTox_CID>
3183

>  <DSSTox_Generic_SID>
23183

>  <DSSTox_FileID>
804_CPDBAS_v5d

>  <STRUCTURE_Formula>
C42H69NO15

>  <STRUCTURE_MolecularWeight>
827.99496

>  <STRUCTURE_ChemicalType>
defined organic

>  <STRUCTURE_TestedForm_DefinedOrganic>
parent

>  <STRUCTURE_Shown>
tested chemical

>  <TestSubstance_ChemicalName>
Josamycin

>  <TestSubstance_CASRN>
16846-24-5

>  <TestSubstance_Description>
single chemical compound

>  <ChemicalNote>
stereochem

>  <STRUCTURE_ChemicalName_IUPAC>
4-(acetyloxy)-6-((3,6-dideoxy-4-O-(2,6-dideoxy-3-C-methyl-4-O-(3-methyl-1-oxobutyl)-alpha-L-ribo-hexopyranosyl)-3-(dimethylamino)-beta-D-glucopyranosyl)oxy)-10-hydroxy-5-methoxy-9,16-dimethyl-2-oxooxacyclohexadeca-11,13-diene-7-acetaldehyde

>  <STRUCTURE_SMILES>
CC(=O)O[C@@H]3CC(=O)O[C@H](C)C\C=C\C=C\[C@H](O)[C@H](C)C[C@H](CC=O)[C@H](O[C@@H]2O[C@H](C)[C@@H](O[C@H]1C[C@@](C)(O)[C@H](OC(=O)CC(C)C)[C@H](C)O1)[C@H](N(C)C)[C@H]2O)C3OC

>  <STRUCTURE_Parent_SMILES>
CC(=O)O[C@@H]3CC(=O)O[C@H](C)C\C=C\C=C\[C@H](O)[C@H](C)C[C@H](CC=O)[C@H](O[C@@H]2O[C@H](C)[C@@H](O[C@H]1C[C@@](C)(O)[C@H](OC(=O)CC(C)C)[C@H](C)O1)[C@H](N(C)C)[C@H]2O)C3OC

>  <STRUCTURE_InChI>
InChI=1/C42H69NO15/c1-23(2)19-32(47)56-40-27(6)53-34(22-42(40,8)50)57-37-26(5)54-41(36(49)35(37)43(9)10)58-38-29(17-18-44)20-24(3)30(46)16-14-12-13-15-25(4)52-33(48)21-31(39(38)51-11)55-28(7)45/h12-14,16,18,23-27,29-31,34-41,46,49-50H,15,17,19-22H2,1-11H3/b13-12+,16-14+/t24-,25-,26-,27+,29+,30+,31-,34+,35-,36-,37-,38+,39?,40-,41+,42-/m1/s1

>  <STRUCTURE_InChIKey>
XJSFLOJWULLJQS-HTYUZQQABV

>  <StudyType>
Carcinogenicity

>  <Endpoint>
TD50; Tumor Target Sites

>  <Species>
rat

>  <ActivityScore_CPDBAS_Rat>
0

>  <TD50_Rat_Note>
no positive results

>  <TargetSites_Rat_Male>
no positive results

>  <TargetSites_Rat_Female>
no positive results

>  <ActivityOutcome_CPDBAS_Rat>
inactive

>  <ActivityOutcome_CPDBAS_SingleCellCall>
inactive

>  <ActivityOutcome_CPDBAS_MultiCellCall>
inactive

>  <ActivityOutcome_CPDBAS_MultiCellCall_Details>
multisex inactive

>  <Note_CPDBAS>
Rat added v5a; chemical added v5a

>  <ChemicalPage_URL>
http://potency.berkeley.edu/chempages/JOSAMYCIN.html

$$$$



 21 23  0  0  0  0  0  0  0  0999 V2000
    4.6012    0.0000    0.0000 O   0  0  0  0  0  0  0  0  0  0  0  0
    4.6012   -1.3265    0.0000 C   0  0  0  0  0  0  0  0  0  0  0  0
    3.4509   -1.9897    0.0000 C   0  0  0  0  0  0  0  0  0  0  0  0
    3.4509   -3.3162    0.0000 C   0  0  0  0  0  0  0  0  0  0  0  0
    2.3006   -3.9898    0.0000 C   0  0  0  0  0  0  0  0  0  0  0  0
    1.1503   -3.3162    0.0000 C   0  0  0  0  0  0  0  0  0  0  0  0
    1.1503   -1.9897    0.0000 C   0  0  0  0  0  0  0  0  0  0  0  0
    2.3006   -1.3265    0.0000 C   0  0  0  0  0  0  0  0  0  0  0  0
    2.3006    0.0000    0.0000 O   0  0  0  0  0  0  0  0  0  0  0  0
    0.0000   -3.9898    0.0000 O   0  0  0  0  0  0  0  0  0  0  0  0
    4.6012   -3.9898    0.0000 O   0  0  0  0  0  0  0  0  0  0  0  0
    5.7619   -3.3162    0.0000 C   0  0  0  0  0  0  0  0  0  0  0  0
    5.7619   -1.9897    0.0000 C   0  0  0  0  0  0  0  0  0  0  0  0
    6.9122   -1.3265    0.0000 O   0  0  0  0  0  0  0  0  0  0  0  0
    6.9122   -3.9898    0.0000 C   0  0  0  0  0  0  0  0  0  0  0  0
    8.0625   -3.3162    0.0000 C   0  0  0  0  0  0  0  0  0  0  0  0
    9.2128   -3.9898    0.0000 C   0  0  0  0  0  0  0  0  0  0  0  0
    9.2128   -5.3163    0.0000 C   0  0  0  0  0  0  0  0  0  0  0  0
    8.0625   -5.9795    0.0000 C   0  0  0  0  0  0  0  0  0  0  0  0
    6.9122   -5.3163    0.0000 C   0  0  0  0  0  0  0  0  0  0  0  0
   10.3631   -5.9795    0.0000 O   0  0  0  0  0  0  0  0  0  0  0  0
  1  2  2  0  0  0  0
  2  3  1  0  0  0  0
  2 13  1  0  0  0  0
  3  4  2  0  0  0  0
  3  8  1  0  0  0  0
  4  5  1  0  0  0  0
  4 11  1  0  0  0  0
  5  6  2  0  0  0  0
  6  7  1  0  0  0  0
  6 10  1  0  0  0  0
  7  8  2  0  0  0  0
  8  9  1  0  0  0  0
 11 12  1  0  0  0  0
 12 13  2  0  0  0  0
 12 15  1  0  0  0  0
 13 14  1  0  0  0  0
 15 16  2  0  0  0  0
 15 20  1  0  0  0  0
 16 17  1  0  0  0  0
 17 18  2  0  0  0  0
 18 19  1  0  0  0  0
 18 21  1  0  0  0  0
 19 20  2  0  0  0  0
M  END
>  <DSSTox_RID>
20768

>  <DSSTox_CID>
768

>  <DSSTox_Generic_SID>
20768

>  <DSSTox_FileID>
805_CPDBAS_v5d

>  <STRUCTURE_Formula>
C15H10O6

>  <STRUCTURE_MolecularWeight>
286.2363

>  <STRUCTURE_ChemicalType>
defined organic

>  <STRUCTURE_TestedForm_DefinedOrganic>
parent

>  <STRUCTURE_Shown>
tested chemical

>  <TestSubstance_ChemicalName>
Kaempferol

>  <TestSubstance_CASRN>
520-18-3

>  <TestSubstance_Description>
single chemical compound

>  <ChemicalNote>
tautomers

>  <STRUCTURE_ChemicalName_IUPAC>
3,5,7-trihydroxy-2-(4-hydroxyphenyl)-4H-chromen-4-one

>  <STRUCTURE_SMILES>
O=C1C2=C(C=C(C=C2O)O)OC(=C1O)C3=CC=C(C=C3)O

>  <STRUCTURE_Parent_SMILES>
O=C1C2=C(C=C(C=C2O)O)OC(=C1O)C3=CC=C(C=C3)O

>  <STRUCTURE_InChI>
InChI=1/C15H10O6/c16-8-3-1-7(2-4-8)15-14(20)13(19)12-10(18)5-9(17)6-11(12)21-15/h1-6,16-18,20H

>  <STRUCTURE_InChIKey>
IYRMWMYZSQPJKC-UHFFFAOYAR

>  <StudyType>
Carcinogenicity

>  <Endpoint>
TD50; Tumor Target Sites

>  <Species>
rat

>  <ActivityOutcome_CPDBAS_Mutagenicity>
active

>  <ActivityScore_CPDBAS_Rat>
0

>  <TD50_Rat_Note>
no positive results

>  <TargetSites_Rat_Male>
no positive results

>  <TargetSites_Rat_Female>
no positive results

>  <ActivityOutcome_CPDBAS_Rat>
inactive

>  <ActivityOutcome_CPDBAS_SingleCellCall>
inactive

>  <ActivityOutcome_CPDBAS_MultiCellCall>
inactive

>  <ActivityOutcome_CPDBAS_MultiCellCall_Details>
multisex inactive

>  <ChemicalPage_URL>
http://potency.berkeley.edu/chempages/KAEMPFEROL.html

$$$$



 21 25  0  0  0  0  0  0  0  0999 V2000
    3.0763   -2.1906    0.0000 C   0  0  3  0  0  0  0  0  0  0  0  0
    4.7125   -3.8741    0.0000 C   0  0  3  0  0  0  0  0  0  0  0  0
    2.0351   -1.4536    0.0000 C   0  0  3  0  0  0  0  0  0  0  0  0
    3.6781   -3.1304    0.0000 C   0  0  3  0  0  0  0  0  0  0  0  0
    4.7125   -2.1906    0.0000 C   0  0  0  0  0  0  0  0  0  0  0  0
    3.6781   -1.4536    0.0000 C   0  0  0  0  0  0  0  0  0  0  0  0
    3.0763   -3.8741    0.0000 C   0  0  0  0  0  0  0  0  0  0  0  0
    2.0351   -3.1304    0.0000 C   0  0  0  0  0  0  0  0  0  0  0  0
    5.8416   -1.1359    0.0000 C   0  0  0  0  0  0  0  0  0  0  0  0
    1.0818   -4.0837    0.0000 C   0  0  0  0  0  0  0  0  0  0  0  0
    0.0000   -4.7531    0.0000 O   0  0  0  0  0  0  0  0  0  0  0  0
    1.4942   -0.8181    0.0000 Cl  0  0  0  0  0  0  0  0  0  0  0  0
    5.0844   -4.6652    0.0000 Cl  0  0  0  0  0  0  0  0  0  0  0  0
    4.3068   -2.7856    0.0000 Cl  0  0  0  0  0  0  0  0  0  0  0  0
    2.4002   -2.4813    0.0000 Cl  0  0  0  0  0  0  0  0  0  0  0  0
    5.5577   -2.5016    0.0000 Cl  0  0  0  0  0  0  0  0  0  0  0  0
    4.1446   -0.7032    0.0000 Cl  0  0  0  0  0  0  0  0  0  0  0  0
    3.4008   -4.7531    0.0000 Cl  0  0  0  0  0  0  0  0  0  0  0  0
    1.2440   -2.8600    0.0000 Cl  0  0  0  0  0  0  0  0  0  0  0  0
    6.2270    0.0000    0.0000 Cl  0  0  0  0  0  0  0  0  0  0  0  0
    6.7611   -1.8187    0.0000 Cl  0  0  0  0  0  0  0  0  0  0  0  0
  1  3  1  0  0  0  0
  1  5  1  0  0  0  0
  1  7  1  0  0  0  0
  1 15  1  0  0  0  0
  2  7  1  0  0  0  0
  2  4  1  0  0  0  0
  2 13  1  0  0  0  0
  2  5  1  0  0  0  0
  3  6  1  0  0  0  0
  3  8  1  0  0  0  0
  3 12  1  0  0  0  0
  4 14  1  0  0  0  0
  4  8  1  0  0  0  0
  4  6  1  0  0  0  0
  5  9  1  0  0  0  0
  5 16  1  0  0  0  0
  6 17  1  0  0  0  0
  6  9  1  0  0  0  0
  7 10  1  0  0  0  0
  7 18  1  0  0  0  0
  8 19  1  0  0  0  0
  8 10  1  0  0  0  0
  9 20  1  0  0  0  0
  9 21  1  0  0  0  0
 10 11  2  0  0  0  0
M  END
>  <DSSTox_RID>
20770

>  <DSSTox_CID>
770

>  <DSSTox_Generic_SID>
20770

>  <DSSTox_FileID>
807_CPDBAS_v5d

>  <STRUCTURE_Formula>
C10Cl10O

>  <STRUCTURE_MolecularWeight>
490.6364

>  <STRUCTURE_ChemicalType>
defined organic

>  <STRUCTURE_TestedForm_DefinedOrganic>
parent

>  <STRUCTURE_Shown>
tested chemical

>  <TestSubstance_ChemicalName>
Kepone

>  <TestSubstance_CASRN>
143-50-0

>  <TestSubstance_Description>
single chemical compound

>  <ChemicalNote>
stereochem

>  <STRUCTURE_ChemicalName_IUPAC>
1,1a,3,3a,4,5,5,5a,5b,6-decachlorooctahydro-2H-1,3,4-(methanetriyl)cyclobuta[cd]pentalen-2-one

>  <STRUCTURE_SMILES>
ClC54C(=O)C1(Cl)C2(Cl)C5(Cl)C3(Cl)C4(Cl)C1(Cl)C2(Cl)C3(Cl)Cl

>  <STRUCTURE_Parent_SMILES>
ClC54C(=O)C1(Cl)C2(Cl)C5(Cl)C3(Cl)C4(Cl)C1(Cl)C2(Cl)C3(Cl)Cl

>  <STRUCTURE_InChI>
InChI=1/C10Cl10O/c11-2-1(21)3(12)6(15)4(2,13)8(17)5(2,14)7(3,16)9(6,18)10(8,19)20

>  <STRUCTURE_InChIKey>
LHHGDZSESBACKH-UHFFFAOYAM

>  <StudyType>
Carcinogenicity

>  <Endpoint>
TD50; Tumor Target Sites

>  <Species>
rat; mouse

>  <ActivityOutcome_CPDBAS_Mutagenicity>
inactive

>  <TD50_Rat_mg>
2.96

>  <TD50_Rat_mmol>
0.00603

>  <ActivityScore_CPDBAS_Rat>
49

>  <TargetSites_Rat_Male>
no positive results

>  <TargetSites_Rat_Female>
liver

>  <ActivityOutcome_CPDBAS_Rat>
active

>  <TD50_Mouse_mg>
0.982

>  <TD50_Mouse_mmol>
0.002

>  <ActivityScore_CPDBAS_Mouse>
59

>  <TD50_Mouse_Note>
TD50 is harmonic mean of more than one positive test

>  <TargetSites_Mouse_Male>
liver

>  <TargetSites_Mouse_Female>
liver

>  <ActivityOutcome_CPDBAS_Mouse>
active

>  <ActivityOutcome_CPDBAS_SingleCellCall>
active

>  <ActivityOutcome_CPDBAS_MultiCellCall>
active

>  <ActivityOutcome_CPDBAS_MultiCellCall_Details>
multisex active; multispecies active

>  <NTP_TechnicalReport>
TR 000

>  <ChemicalPage_URL>
http://potency.berkeley.edu/chempages/KEPONE.html

$$$$



 19 20  0  0  0  0  0  0  0  0999 V2000
    1.9969    0.0000    0.0000 O   0  0  0  0  0  0  0  0  0  0  0  0
    2.6625   -1.1497    0.0000 C   0  0  0  0  0  0  0  0  0  0  0  0
    3.9937   -1.1497    0.0000 C   0  0  0  0  0  0  0  0  0  0  0  0
    4.6507    0.0000    0.0000 C   0  0  0  0  0  0  0  0  0  0  0  0
    5.9819    0.0000    0.0000 C   0  0  0  0  0  0  0  0  0  0  0  0
    6.6475   -1.1497    0.0000 C   0  0  0  0  0  0  0  0  0  0  0  0
    5.9819   -2.3080    0.0000 C   0  0  0  0  0  0  0  0  0  0  0  0
    4.6507   -2.3080    0.0000 C   0  0  0  0  0  0  0  0  0  0  0  0
    6.6475   -3.4578    0.0000 C   0  0  3  0  0  0  0  0  0  0  0  0
    7.9788   -3.4578    0.0000 C   0  0  0  0  0  0  0  0  0  0  0  0
    8.6444   -4.6075    0.0000 O   0  0  0  0  0  0  0  0  0  0  0  0
    8.6444   -2.3080    0.0000 O   0  0  0  0  0  0  0  0  0  0  0  0
    5.9819   -4.6075    0.0000 C   0  0  0  0  0  0  0  0  0  0  0  0
    1.9969   -2.3080    0.0000 C   0  0  0  0  0  0  0  0  0  0  0  0
    2.6625   -3.4578    0.0000 C   0  0  0  0  0  0  0  0  0  0  0  0
    1.9969   -4.6075    0.0000 C   0  0  0  0  0  0  0  0  0  0  0  0
    0.6656   -4.6075    0.0000 C   0  0  0  0  0  0  0  0  0  0  0  0
    0.0000   -3.4578    0.0000 C   0  0  0  0  0  0  0  0  0  0  0  0
    0.6656   -2.3080    0.0000 C   0  0  0  0  0  0  0  0  0  0  0  0
  1  2  2  0  0  0  0
  2  3  1  0  0  0  0
  2 14  1  0  0  0  0
  3  4  2  0  0  0  0
  3  8  1  0  0  0  0
  4  5  1  0  0  0  0
  5  6  2  0  0  0  0
  6  7  1  0  0  0  0
  7  8  2  0  0  0  0
  7  9  1  0  0  0  0
  9 10  1  0  0  0  0
  9 13  1  0  0  0  0
 10 11  2  0  0  0  0
 10 12  1  0  0  0  0
 14 15  2  0  0  0  0
 14 19  1  0  0  0  0
 15 16  1  0  0  0  0
 16 17  2  0  0  0  0
 17 18  1  0  0  0  0
 18 19  2  0  0  0  0
M  END
>  <DSSTox_RID>
20771

>  <DSSTox_CID>
771

>  <DSSTox_Generic_SID>
20771

>  <DSSTox_FileID>
808_CPDBAS_v5d

>  <STRUCTURE_Formula>
C16H14O3

>  <STRUCTURE_MolecularWeight>
254.2848

>  <STRUCTURE_ChemicalType>
defined organic

>  <STRUCTURE_TestedForm_DefinedOrganic>
parent

>  <STRUCTURE_Shown>
tested chemical

>  <TestSubstance_ChemicalName>
Ketoprofen

>  <TestSubstance_CASRN>
22071-15-4

>  <TestSubstance_Description>
single chemical compound

>  <STRUCTURE_ChemicalName_IUPAC>
2-[3-(phenylcarbonyl)phenyl]propanoic acid

>  <STRUCTURE_SMILES>
O=C(C1=CC=CC(=C1)C(C(=O)O)C)C2=CC=CC=C2

>  <STRUCTURE_Parent_SMILES>
O=C(C1=CC=CC(=C1)C(C(=O)O)C)C2=CC=CC=C2

>  <STRUCTURE_InChI>
InChI=1/C16H14O3/c1-11(16(18)19)13-8-5-9-14(10-13)15(17)12-6-3-2-4-7-12/h2-11H,1H3,(H,18,19)/f/h18H

>  <STRUCTURE_InChIKey>
DKYWVDODHFEZIM-GPQMBLKYCJ

>  <StudyType>
Carcinogenicity

>  <Endpoint>
TD50; Tumor Target Sites

>  <Species>
rat

>  <ActivityScore_CPDBAS_Rat>
0

>  <TD50_Rat_Note>
no positive results

>  <TargetSites_Rat_Male>
no positive results

>  <ActivityOutcome_CPDBAS_Rat>
inactive

>  <ActivityOutcome_CPDBAS_SingleCellCall>
inactive

>  <ChemicalPage_URL>
http://potency.berkeley.edu/chempages/KETOPROFEN.html

$$$$



 10 10  0  0  0  0  0  0  0  0999 V2000
    1.1615   -2.0226    0.0000 C   0  0  0  0  0  0  0  0  0  0  0  0
    2.3057   -2.6756    0.0000 C   0  0  0  0  0  0  0  0  0  0  0  0
    3.4499   -2.0226    0.0000 C   0  0  0  0  0  0  0  0  0  0  0  0
    1.1615   -0.6935    0.0000 C   0  0  0  0  0  0  0  0  0  0  0  0
    2.3057   -0.0347    0.0000 O   0  0  0  0  0  0  0  0  0  0  0  0
    3.4499   -0.6935    0.0000 C   0  0  0  0  0  0  0  0  0  0  0  0
    2.3057   -4.0047    0.0000 O   0  0  0  0  0  0  0  0  0  0  0  0
    0.0000   -2.7045    0.0000 O   0  0  0  0  0  0  0  0  0  0  0  0
    4.6173    0.0000    0.0000 C   0  0  0  0  0  0  0  0  0  0  0  0
    5.7788   -0.6530    0.0000 O   0  0  0  0  0  0  0  0  0  0  0  0
  1  2  1  0  0  0  0
  1  4  2  0  0  0  0
  1  8  1  0  0  0  0
  2  3  1  0  0  0  0
  2  7  2  0  0  0  0
  3  6  2  0  0  0  0
  4  5  1  0  0  0  0
  5  6  1  0  0  0  0
  6  9  1  0  0  0  0
  9 10  1  0  0  0  0
M  END
>  <DSSTox_RID>
40804

>  <DSSTox_CID>
20236

>  <DSSTox_Generic_SID>
40236

>  <DSSTox_FileID>
809_CPDBAS_v5d

>  <STRUCTURE_Formula>
C6H6O4

>  <STRUCTURE_MolecularWeight>
142.1094

>  <STRUCTURE_ChemicalType>
defined organic

>  <STRUCTURE_TestedForm_DefinedOrganic>
parent

>  <STRUCTURE_Shown>
tested chemical

>  <TestSubstance_ChemicalName>
Kojic acid

>  <TestSubstance_CASRN>
501-30-4

>  <TestSubstance_Description>
single chemical compound

>  <STRUCTURE_ChemicalName_IUPAC>
5-hydroxy-2-(hydroxymethyl)-4H-pyran-4-one

>  <STRUCTURE_SMILES>
O=C1C(O)=COC(CO)=C1

>  <STRUCTURE_Parent_SMILES>
O=C1C(O)=COC(CO)=C1

>  <STRUCTURE_InChI>
InChI=1/C6H6O4/c7-2-4-1-5(8)6(9)3-10-4/h1,3,7,9H,2H2

>  <STRUCTURE_InChIKey>
BEJNERDRQOWKJM-UHFFFAOYAO

>  <StudyType>
Carcinogenicity

>  <Endpoint>
TD50; Tumor Target Sites

>  <Species>
mouse

>  <ActivityOutcome_CPDBAS_Mutagenicity>
active

>  <TD50_Mouse_mg>
658

>  <TD50_Mouse_mmol>
4.63

>  <ActivityScore_CPDBAS_Mouse>
21

>  <TD50_Mouse_Note>
TD50 is harmonic mean of more than one positive test

>  <TargetSites_Mouse_Male>
thyroid gland

>  <TargetSites_Mouse_Female>
thyroid gland

>  <ActivityOutcome_CPDBAS_Mouse>
active

>  <ActivityOutcome_CPDBAS_SingleCellCall>
active

>  <ActivityOutcome_CPDBAS_MultiCellCall>
active

>  <ActivityOutcome_CPDBAS_MultiCellCall_Details>
multisex active

>  <Note_CPDBAS>
Mouse added v5a; Mutagenicity_SAL_CPDB added v5a; chemical added v5a

>  <ChemicalPage_URL>
http://potency.berkeley.edu/chempages/KOJIC%20ACID.html

$$$$



 30 31  0  0  1  0  0  0  0  0999 V2000
    4.3962   -6.0190    0.0000 N   0  0  0  0  0  0  0  0  0  0  0  0
    4.3962   -4.7595    0.0000 C   0  0  1  0  0  0  0  0  0  0  0  0
    3.3062   -4.1055    0.0000 C   0  0  2  0  0  0  0  0  0  0  0  0
    2.1920   -6.0190    0.0000 C   0  0  0  0  0  0  0  0  0  0  0  0
    2.1920   -4.7595    0.0000 C   0  0  0  0  0  0  0  0  0  0  0  0
    6.5883   -6.0190    0.0000 C   0  0  0  0  0  0  0  0  0  0  0  0
    5.4862   -4.1055    0.0000 C   0  0  0  0  0  0  0  0  0  0  0  0
    6.5883   -4.7595    0.0000 C   0  0  0  0  0  0  0  0  0  0  0  0
    4.3962   -3.4879    0.0000 H   0  0  0  0  0  0  0  0  0  0  0  0
    3.3062   -2.8460    0.0000 O   0  0  0  0  0  0  0  0  0  0  0  0
    5.4862   -2.8460    0.0000 C   0  0  0  0  0  0  0  0  0  0  0  0
    6.5883   -2.2042    0.0000 O   0  0  0  0  0  0  0  0  0  0  0  0
    2.1920   -2.2042    0.0000 C   0  0  0  0  0  0  0  0  0  0  0  0
    2.1920   -0.9446    0.0000 O   0  0  0  0  0  0  0  0  0  0  0  0
    1.0900   -2.8460    0.0000 C   0  0  0  0  0  0  0  0  0  0  0  0
    1.0900   -4.1055    0.0000 C   0  0  0  0  0  0  0  0  0  0  0  0
    0.0000   -2.2042    0.0000 C   0  0  0  0  0  0  0  0  0  0  0  0
    0.0000   -0.9446    0.0000 C   0  0  0  0  0  0  0  0  0  0  0  0
    7.6782   -2.8218    0.0000 C   0  0  0  0  0  0  0  0  0  0  0  0
    8.8045   -2.1920    0.0000 C   0  0  1  0  0  0  0  0  0  0  0  0
    7.6782   -4.1055    0.0000 O   0  0  0  0  0  0  0  0  0  0  0  0
    9.9066   -2.8218    0.0000 C   0  0  1  0  0  0  0  0  0  0  0  0
   11.0208   -2.1920    0.0000 O   0  0  0  0  0  0  0  0  0  0  0  0
    9.9066   -4.1055    0.0000 C   0  0  0  0  0  0  0  0  0  0  0  0
   12.1108   -2.8097    0.0000 C   0  0  0  0  0  0  0  0  0  0  0  0
    9.4464   -1.0900    0.0000 O   0  0  0  0  0  0  0  0  0  0  0  0
    8.1748   -1.0900    0.0000 C   0  0  0  0  0  0  0  0  0  0  0  0
    6.9152   -1.0900    0.0000 C   0  0  0  0  0  0  0  0  0  0  0  0
    8.8045    0.0000    0.0000 C   0  0  0  0  0  0  0  0  0  0  0  0
    7.2543   -0.1817    0.0000 O   0  0  0  0  0  0  0  0  0  0  0  0
  1  4  1  0  0  0  0
  1  6  1  0  0  0  0
  1  2  1  0  0  0  0
  2  3  1  0  0  0  0
  2  7  1  0  0  0  0
  2  9  1  6  0  0  0
  3  5  1  0  0  0  0
  3 10  1  6  0  0  0
  4  5  1  0  0  0  0
  6  8  1  0  0  0  0
  7  8  2  0  0  0  0
  7 11  1  0  0  0  0
 10 13  1  0  0  0  0
 11 12  1  0  0  0  0
 12 19  1  0  0  0  0
 13 14  2  0  0  0  0
 13 15  1  0  0  0  0
 15 16  1  0  0  0  0
 15 17  2  0  0  0  0
 17 18  1  0  0  0  0
 19 20  1  0  0  0  0
 19 21  2  0  0  0  0
 20 22  1  0  0  0  0
 20 26  1  6  0  0  0
 20 27  1  0  0  0  0
 22 23  1  0  0  0  0
 22 24  1  1  0  0  0
 23 25  1  0  0  0  0
 27 28  1  0  0  0  0
 27 29  1  0  0  0  0
 27 30  1  0  0  0  0
M  END
>  <DSSTox_RID>
20772

>  <DSSTox_CID>
772

>  <DSSTox_Generic_SID>
20772

>  <DSSTox_FileID>
810_CPDBAS_v5d

>  <STRUCTURE_Formula>
C21H33NO7

>  <STRUCTURE_MolecularWeight>
411.4892

>  <STRUCTURE_ChemicalType>
defined organic

>  <STRUCTURE_TestedForm_DefinedOrganic>
parent

>  <STRUCTURE_Shown>
tested chemical

>  <TestSubstance_ChemicalName>
Lasiocarpine

>  <TestSubstance_CASRN>
303-34-4

>  <TestSubstance_Description>
single chemical compound

>  <ChemicalNote>
stereochem

>  <STRUCTURE_ChemicalName_IUPAC>
(1S,7aR)-7-[({(2S)-2,3-dihydroxy-2-[(1S)-1-methoxyethyl]-3-methylbutanoyl}oxy)methyl]-2,3,5,7a-tetrahydro-1H-pyrrolizin-1-yl (2Z)-2-methylbut-2-enoate

>  <STRUCTURE_SMILES>
[H][C@]12N(CC=C2COC([C@@](O)(C(O)(C)C)[C@H](C)OC)=O)CC[C@@H]1OC(\C(C)=C/C)=O

>  <STRUCTURE_Parent_SMILES>
[H][C@]12N(CC=C2COC([C@@](O)(C(O)(C)C)[C@H](C)OC)=O)CC[C@@H]1OC(\C(C)=C/C)=O

>  <STRUCTURE_InChI>
InChI=1/C21H33NO7/c1-7-13(2)18(23)29-16-9-11-22-10-8-15(17(16)22)12-28-19(24)21(26,14(3)27-6)20(4,5)25/h7-8,14,16-17,25-26H,9-12H2,1-6H3/b13-7-/t14-,16-,17+,21+/m0/s1

>  <STRUCTURE_InChIKey>
QHOZSLCIKHUPSU-PNFBIMPKBQ

>  <StudyType>
Carcinogenicity

>  <Endpoint>
TD50; Tumor Target Sites

>  <Species>
rat

>  <ActivityOutcome_CPDBAS_Mutagenicity>
active

>  <TD50_Rat_mg>
0.389

>  <TD50_Rat_mmol>
0.000945

>  <ActivityScore_CPDBAS_Rat>
57

>  <TD50_Rat_Note>
TD50 is harmonic mean of more than one positive test

>  <TargetSites_Rat_Male>
liver; skin; small intestine; vascular system

>  <TargetSites_Rat_Female>
hematopoietic system; liver; vascular system

>  <ActivityOutcome_CPDBAS_Rat>
active

>  <ActivityOutcome_CPDBAS_SingleCellCall>
active

>  <ActivityOutcome_CPDBAS_MultiCellCall>
active

>  <ActivityOutcome_CPDBAS_MultiCellCall_Details>
multisite active; multisex active

>  <Note_CPDBAS>
TD50_Rat modified v2a

>  <NTP_TechnicalReport>
TR 39; additional results included in CPDB

>  <ChemicalPage_URL>
http://potency.berkeley.edu/chempages/LASIOCARPINE.html

$$$$



 30 29  0  0  1  0  0  0  0  0999 V2000
    1.1483   -3.9844    0.0000 C   0  0  0  0  0  0  0  0  0  0  0  0
    8.0656   -3.9844    0.0000 C   0  0  0  0  0  0  0  0  0  0  0  0
    0.0000   -4.6484    0.0000 N   0  0  0  0  0  0  0  0  0  0  0  0
    8.0656   -2.6562    0.0000 O   0  0  0  0  0  0  0  0  0  0  0  0
    2.3104   -4.6484    0.0000 N   0  0  0  0  0  0  0  0  0  0  0  0
    6.9173   -4.6484    0.0000 C   0  0  1  0  0  0  0  0  0  0  0  0
    1.1483   -2.6562    0.0000 N   0  0  0  0  0  0  0  0  0  0  0  0
    6.9173   -5.9904    0.0000 N   0  0  0  0  0  0  0  0  0  0  0  0
    3.4587   -3.9844    0.0000 C   0  0  0  0  0  0  0  0  0  0  0  0
    5.7690   -3.9844    0.0000 C   0  0  0  0  0  0  0  0  0  0  0  0
    4.6069   -4.6484    0.0000 C   0  0  0  0  0  0  0  0  0  0  0  0
    8.0656   -6.6544    0.0000 C   0  0  0  0  0  0  0  0  0  0  0  0
    9.2277   -5.9904    0.0000 C   0  0  2  0  0  0  0  0  0  0  0  0
    8.0656   -7.9826    0.0000 O   0  0  0  0  0  0  0  0  0  0  0  0
   10.3760   -6.6544    0.0000 C   0  0  0  0  0  0  0  0  0  0  0  0
    9.2277   -4.6484    0.0000 N   0  0  0  0  0  0  0  0  0  0  0  0
   10.3760   -7.9826    0.0000 C   0  0  0  0  0  0  0  0  0  0  0  0
    9.2277   -8.6466    0.0000 C   0  0  0  0  0  0  0  0  0  0  0  0
   11.5242   -8.6466    0.0000 C   0  0  0  0  0  0  0  0  0  0  0  0
   10.3760   -3.9844    0.0000 C   0  0  0  0  0  0  0  0  0  0  0  0
   10.3760   -2.6562    0.0000 C   0  0  2  0  0  0  0  0  0  0  0  0
   11.5242   -4.6484    0.0000 O   0  0  0  0  0  0  0  0  0  0  0  0
   11.5242   -1.9922    0.0000 C   0  0  0  0  0  0  0  0  0  0  0  0
    9.2277   -1.9922    0.0000 N   0  0  0  0  0  0  0  0  0  0  0  0
   12.6863   -2.6562    0.0000 C   0  0  0  0  0  0  0  0  0  0  0  0
   12.6863   -3.9844    0.0000 C   0  0  0  0  0  0  0  0  0  0  0  0
   13.8346   -1.9922    0.0000 C   0  0  0  0  0  0  0  0  0  0  0  0
    9.2277   -0.6641    0.0000 C   0  0  0  0  0  0  0  0  0  0  0  0
    8.0656    0.0000    0.0000 O   0  0  0  0  0  0  0  0  0  0  0  0
   10.3760    0.0000    0.0000 C   0  0  0  0  0  0  0  0  0  0  0  0
  1  3  2  0  0  0  0
  1  5  1  0  0  0  0
  1  7  1  0  0  0  0
  2  6  1  0  0  0  0
  2  4  2  0  0  0  0
  5  9  1  0  0  0  0
  6 10  1  0  0  0  0
  6  8  1  1  0  0  0
  8 12  1  0  0  0  0
  9 11  1  0  0  0  0
 10 11  1  0  0  0  0
 12 13  1  0  0  0  0
 12 14  2  0  0  0  0
 13 15  1  0  0  0  0
 13 16  1  1  0  0  0
 15 17  1  0  0  0  0
 16 20  1  0  0  0  0
 17 18  1  0  0  0  0
 17 19  1  0  0  0  0
 20 21  1  0  0  0  0
 20 22  2  0  0  0  0
 21 23  1  0  0  0  0
 21 24  1  1  0  0  0
 23 25  1  0  0  0  0
 24 28  1  0  0  0  0
 25 26  1  0  0  0  0
 25 27  1  0  0  0  0
 28 29  2  0  0  0  0
 28 30  1  0  0  0  0
M  END
>  <DSSTox_RID>
20776

>  <DSSTox_CID>
776

>  <DSSTox_Generic_SID>
20776

>  <DSSTox_FileID>
814_CPDBAS_v5d

>  <STRUCTURE_Formula>
C20H38N6O4

>  <STRUCTURE_MolecularWeight>
426.5535

>  <STRUCTURE_ChemicalType>
defined organic

>  <STRUCTURE_TestedForm_DefinedOrganic>
parent

>  <STRUCTURE_Shown>
tested chemical

>  <TestSubstance_ChemicalName>
Leupeptin

>  <TestSubstance_CASRN>
24365-47-7

>  <TestSubstance_Description>
single chemical compound

>  <ChemicalNote>
stereochem, tautomers

>  <STRUCTURE_ChemicalName_IUPAC>
N-acetyl-L-leucyl-N-[(1S)-4-{[amino(imino)methyl]amino}-1-formylbutyl]-L-leucinamide

>  <STRUCTURE_SMILES>
N=C(N)NCCC[C@H](NC([C@@H](NC([C@@H](NC(C)=O)CC(C)C)=O)CC(C)C)=O)C=O

>  <STRUCTURE_Parent_SMILES>
N=C(N)NCCC[C@H](NC([C@@H](NC([C@@H](NC(C)=O)CC(C)C)=O)CC(C)C)=O)C=O

>  <STRUCTURE_InChI>
InChI=1/C20H38N6O4/c1-12(2)9-16(24-14(5)28)19(30)26-17(10-13(3)4)18(29)25-15(11-27)7-6-8-23-20(21)22/h11-13,15-17H,6-10H2,1-5H3,(H,24,28)(H,25,29)(H,26,30)(H4,21,22,23)/t15-,16-,17-/m0/s1/f/h21,23-26H,22H2

>  <STRUCTURE_InChIKey>
GDBQQVLCIARPGH-UQJITTDXDM

>  <StudyType>
Carcinogenicity

>  <Endpoint>
TD50; Tumor Target Sites

>  <Species>
mouse

>  <TD50_Mouse_mg>
55.8

>  <TD50_Mouse_mmol>
0.131

>  <ActivityScore_CPDBAS_Mouse>
38

>  <TargetSites_Mouse_Male>
liver

>  <TargetSites_Mouse_Female>
no positive results

>  <ActivityOutcome_CPDBAS_Mouse>
active

>  <ActivityOutcome_CPDBAS_SingleCellCall>
active

>  <ChemicalPage_URL>
http://potency.berkeley.edu/chempages/LEUPEPTIN.html

$$$$



 10 10  0  0  1  0  0  0  0  0999 V2000
    0.0000    0.0000    0.0000 C   0  0  0  0  0  0  0  0  0  0  0  0
    0.6640   -1.1546    0.0000 C   0  0  0  0  0  0  0  0  0  0  0  0
    0.0000   -2.3031    0.0000 C   0  0  0  0  0  0  0  0  0  0  0  0
    1.9921   -1.1546    0.0000 C   0  0  2  0  0  0  0  0  0  0  0  0
    2.6561    0.0000    0.0000 C   0  0  0  0  0  0  0  0  0  0  0  0
    3.9901    0.0000    0.0000 C   0  0  0  0  0  0  0  0  0  0  0  0
    4.6542   -1.1546    0.0000 C   0  0  0  0  0  0  0  0  0  0  0  0
    3.9901   -2.3031    0.0000 C   0  0  0  0  0  0  0  0  0  0  0  0
    2.6561   -2.3031    0.0000 C   0  0  0  0  0  0  0  0  0  0  0  0
    5.9822   -1.1546    0.0000 C   0  0  0  0  0  0  0  0  0  0  0  0
  1  2  1  0  0  0  0
  2  3  2  0  0  0  0
  4  2  1  6  0  0  0
  4  5  1  0  0  0  0
  4  9  1  0  0  0  0
  5  6  1  0  0  0  0
  6  7  1  0  0  0  0
  7  8  2  0  0  0  0
  7 10  1  0  0  0  0
  8  9  1  0  0  0  0
M  END
>  <DSSTox_RID>
20778

>  <DSSTox_CID>
778

>  <DSSTox_Generic_SID>
20778

>  <DSSTox_FileID>
816_CPDBAS_v5d

>  <STRUCTURE_Formula>
C10H16

>  <STRUCTURE_MolecularWeight>
136.234

>  <STRUCTURE_ChemicalType>
defined organic

>  <STRUCTURE_TestedForm_DefinedOrganic>
parent

>  <STRUCTURE_Shown>
tested chemical

>  <TestSubstance_ChemicalName>
d-Limonene

>  <TestSubstance_CASRN>
5989-27-5

>  <TestSubstance_Description>
single chemical compound

>  <ChemicalNote>
stereochem

>  <STRUCTURE_ChemicalName_IUPAC>
(4R)-1-methyl-4-(1-methylethenyl)cyclohexene

>  <STRUCTURE_SMILES>
CC(=C)[C@@H]1CCC(=CC1)C

>  <STRUCTURE_Parent_SMILES>
CC(=C)[C@@H]1CCC(=CC1)C

>  <STRUCTURE_InChI>
InChI=1/C10H16/c1-8(2)10-6-4-9(3)5-7-10/h4,10H,1,5-7H2,2-3H3/t10-/m0/s1

>  <STRUCTURE_InChIKey>
XMGQYMWWDOXHJM-JTQLQIEIBU

>  <StudyType>
Carcinogenicity

>  <Endpoint>
TD50; Tumor Target Sites

>  <Species>
rat; mouse

>  <ActivityOutcome_CPDBAS_Mutagenicity>
inactive

>  <TD50_Rat_mg>
204

>  <TD50_Rat_mmol>
1.5

>  <ActivityScore_CPDBAS_Rat>
24

>  <TargetSites_Rat_Male>
kidney

>  <TargetSites_Rat_Female>
no positive results

>  <ActivityOutcome_CPDBAS_Rat>
active

>  <ActivityScore_CPDBAS_Mouse>
0

>  <TD50_Mouse_Note>
no positive results

>  <TargetSites_Mouse_Male>
no positive results

>  <TargetSites_Mouse_Female>
no positive results

>  <ActivityOutcome_CPDBAS_Mouse>
inactive

>  <ActivityOutcome_CPDBAS_SingleCellCall>
active

>  <NTP_TechnicalReport>
TR 347

>  <ChemicalPage_URL>
http://potency.berkeley.edu/chempages/D-LIMONENE.html

$$$$



 32 35  0  0  1  0  0  0  0  0999 V2000
    6.8295   -3.7020    0.0000 C   0  0  1  0  0  0  0  0  0  0  0  0
    3.3573   -5.6679    0.0000 C   0  0  2  0  0  0  0  0  0  0  0  0
    6.8295   -5.0296    0.0000 C   0  0  2  0  0  0  0  0  0  0  0  0
    4.5190   -5.0296    0.0000 C   0  0  2  0  0  0  0  0  0  0  0  0
    5.6934   -5.6679    0.0000 C   0  0  1  0  0  0  0  0  0  0  0  0
    8.1316   -3.2680    0.0000 C   0  0  2  0  0  0  0  0  0  0  0  0
    3.3573   -7.0210    0.0000 C   0  0  2  0  0  0  0  0  0  0  0  0
    5.6934   -3.0382    0.0000 C   0  0  0  0  0  0  0  0  0  0  0  0
    4.5190   -3.7020    0.0000 C   0  0  0  0  0  0  0  0  0  0  0  0
    8.1316   -5.4508    0.0000 C   0  0  0  0  0  0  0  0  0  0  0  0
    2.1701   -5.0296    0.0000 C   0  0  0  0  0  0  0  0  0  0  0  0
    8.8847   -4.3402    0.0000 C   0  0  0  0  0  0  0  0  0  0  0  0
    5.6934   -7.0210    0.0000 C   0  0  0  0  0  0  0  0  0  0  0  0
   11.6165   -1.3787    0.0000 C   0  0  0  0  0  0  0  0  0  0  0  0
    4.5062   -7.6720    0.0000 C   0  0  0  0  0  0  0  0  0  0  0  0
    2.1701   -7.6848    0.0000 C   0  0  0  0  0  0  0  0  0  0  0  0
   11.6165    0.0000    0.0000 O   0  0  0  0  0  0  0  0  0  0  0  0
    8.1316   -1.9276    0.0000 C   0  0  1  0  0  0  0  0  0  0  0  0
    9.3188   -1.2765    0.0000 C   0  0  0  0  0  0  0  0  0  0  0  0
   10.4038   -1.9914    0.0000 C   0  0  0  0  0  0  0  0  0  0  0  0
    6.8295   -2.4254    0.0000 C   0  0  0  0  0  0  0  0  0  0  0  0
    1.0212   -5.6679    0.0000 C   0  0  0  0  0  0  0  0  0  0  0  0
    1.0212   -7.0210    0.0000 C   0  0  1  0  0  0  0  0  0  0  0  0
    3.3573   -4.4168    0.0000 C   0  0  0  0  0  0  0  0  0  0  0  0
   12.7654   -2.0552    0.0000 O   0  0  0  0  0  0  0  0  0  0  0  0
    0.0000   -7.6593    0.0000 O   0  0  0  0  0  0  0  0  0  0  0  0
    6.9444   -1.2765    0.0000 C   0  0  0  0  0  0  0  0  0  0  0  0
    3.3573   -8.3486    0.0000 H   0  0  0  0  0  0  0  0  0  0  0  0
    4.5190   -6.3572    0.0000 H   0  0  0  0  0  0  0  0  0  0  0  0
    5.6934   -4.3402    0.0000 H   0  0  0  0  0  0  0  0  0  0  0  0
    6.8295   -6.3572    0.0000 H   0  0  0  0  0  0  0  0  0  0  0  0
    8.1316   -4.5956    0.0000 H   0  0  0  0  0  0  0  0  0  0  0  0
  1  3  1  0  0  0  0
  1  6  1  0  0  0  0
  1  8  1  0  0  0  0
  1 21  1  1  0  0  0
  2  4  1  0  0  0  0
  2  7  1  0  0  0  0
  2 11  1  0  0  0  0
  2 24  1  1  0  0  0
  3  5  1  0  0  0  0
  3 10  1  0  0  0  0
  3 31  1  6  0  0  0
  4  9  1  0  0  0  0
  4  5  1  0  0  0  0
  4 29  1  6  0  0  0
  5 13  1  0  0  0  0
  5 30  1  1  0  0  0
  6 12  1  0  0  0  0
  6 18  1  0  0  0  0
  6 32  1  6  0  0  0
  7 16  1  0  0  0  0
  7 15  1  0  0  0  0
  7 28  1  1  0  0  0
  8  9  1  0  0  0  0
 10 12  1  0  0  0  0
 11 22  1  0  0  0  0
 13 15  1  0  0  0  0
 14 20  1  0  0  0  0
 14 17  2  0  0  0  0
 14 25  1  0  0  0  0
 16 23  1  0  0  0  0
 18 19  1  0  0  0  0
 18 27  1  6  0  0  0
 19 20  1  0  0  0  0
 22 23  1  0  0  0  0
 23 26  1  6  0  0  0
M  END
>  <DSSTox_RID>
20779

>  <DSSTox_CID>
779

>  <DSSTox_Generic_SID>
20779

>  <DSSTox_FileID>
817_CPDBAS_v5d

>  <STRUCTURE_Formula>
C24H40O3

>  <STRUCTURE_MolecularWeight>
376.5726

>  <STRUCTURE_ChemicalType>
defined organic

>  <STRUCTURE_TestedForm_DefinedOrganic>
parent

>  <STRUCTURE_Shown>
tested chemical

>  <TestSubstance_ChemicalName>
Lithocholic acid

>  <TestSubstance_CASRN>
434-13-9

>  <TestSubstance_Description>
single chemical compound

>  <ChemicalNote>
stereochem

>  <STRUCTURE_ChemicalName_IUPAC>
(3alpha,5beta)-3-hydroxycholan-24-oic acid

>  <STRUCTURE_SMILES>
O=C(O)CC[C@@H](C)[C@]3([H])[C@](CC2)(C)[C@](CC3)([H])[C@@](CC4)([H])[C@@]2([H])[C@]1(C)[C@@]4([H])C[C@H](O)CC1

>  <STRUCTURE_Parent_SMILES>
O=C(O)CC[C@@H](C)[C@]3([H])[C@](CC2)(C)[C@](CC3)([H])[C@@](CC4)([H])[C@@]2([H])[C@]1(C)[C@@]4([H])C[C@H](O)CC1

>  <STRUCTURE_InChI>
InChI=1/C24H40O3/c1-15(4-9-22(26)27)19-7-8-20-18-6-5-16-14-17(25)10-12-23(16,2)21(18)11-13-24(19,20)3/h15-21,25H,4-14H2,1-3H3,(H,26,27)/t15-,16-,17-,18+,19-,20+,21+,23+,24-/m1/s1/f/h26H

>  <STRUCTURE_InChIKey>
SMEROWZSTRWXGI-CBUUBHRLDU

>  <StudyType>
Carcinogenicity

>  <Endpoint>
TD50; Tumor Target Sites

>  <Species>
rat; mouse

>  <ActivityOutcome_CPDBAS_Mutagenicity>
inactive

>  <ActivityScore_CPDBAS_Rat>
0

>  <TD50_Rat_Note>
no positive results

>  <TargetSites_Rat_Male>
no positive results

>  <TargetSites_Rat_Female>
no positive results

>  <ActivityOutcome_CPDBAS_Rat>
inactive

>  <ActivityScore_CPDBAS_Mouse>
0

>  <TD50_Mouse_Note>
no positive results

>  <TargetSites_Mouse_Male>
no positive results

>  <TargetSites_Mouse_Female>
no positive results

>  <ActivityOutcome_CPDBAS_Mouse>
inactive

>  <ActivityOutcome_CPDBAS_SingleCellCall>
inactive

>  <ActivityOutcome_CPDBAS_MultiCellCall>
inactive

>  <ActivityOutcome_CPDBAS_MultiCellCall_Details>
multisex inactive; multispecies inactive

>  <NTP_TechnicalReport>
TR 175

>  <ChemicalPage_URL>
http://potency.berkeley.edu/chempages/LITHOCHOLIC%20ACID.html

$$$$



 21 23  0  0  0  0  0  0  0  0999 V2000
    6.4864    0.0000    0.0000 O   0  0  0  0  0  0  0  0  0  0  0  0
    7.4750   -0.8877    0.0000 C   0  0  0  0  0  0  0  0  0  0  0  0
    8.7461   -0.4741    0.0000 O   0  0  0  0  0  0  0  0  0  0  0  0
    7.2027   -2.1890    0.0000 C   0  0  0  0  0  0  0  0  0  0  0  0
    5.9921   -2.7338    0.0000 N   0  0  0  0  0  0  0  0  0  0  0  0
    6.1233   -4.0553    0.0000 N   0  0  0  0  0  0  0  0  0  0  0  0
    7.4246   -4.3277    0.0000 C   0  0  0  0  0  0  0  0  0  0  0  0
    8.0904   -3.1777    0.0000 C   0  0  0  0  0  0  0  0  0  0  0  0
    9.4220   -3.1777    0.0000 C   0  0  0  0  0  0  0  0  0  0  0  0
   10.0878   -4.3277    0.0000 C   0  0  0  0  0  0  0  0  0  0  0  0
    9.4220   -5.4777    0.0000 C   0  0  0  0  0  0  0  0  0  0  0  0
    8.0904   -5.4777    0.0000 C   0  0  0  0  0  0  0  0  0  0  0  0
    5.1347   -4.9430    0.0000 C   0  0  0  0  0  0  0  0  0  0  0  0
    3.8535   -4.6000    0.0000 C   0  0  0  0  0  0  0  0  0  0  0  0
    2.9154   -5.5382    0.0000 C   0  0  0  0  0  0  0  0  0  0  0  0
    1.6241   -5.1952    0.0000 C   0  0  0  0  0  0  0  0  0  0  0  0
    1.2811   -3.9141    0.0000 C   0  0  0  0  0  0  0  0  0  0  0  0
    2.2294   -2.9658    0.0000 C   0  0  0  0  0  0  0  0  0  0  0  0
    3.5105   -3.3088    0.0000 C   0  0  0  0  0  0  0  0  0  0  0  0
    4.4487   -2.3706    0.0000 Cl  0  0  0  0  0  0  0  0  0  0  0  0
    0.0000   -3.5610    0.0000 Cl  0  0  0  0  0  0  0  0  0  0  0  0
  1  2  1  0  0  0  0
  2  3  2  0  0  0  0
  2  4  1  0  0  0  0
  4  5  2  0  0  0  0
  4  8  1  0  0  0  0
  5  6  1  0  0  0  0
  6  7  1  0  0  0  0
  6 13  1  0  0  0  0
  7  8  2  0  0  0  0
  7 12  1  0  0  0  0
  8  9  1  0  0  0  0
  9 10  2  0  0  0  0
 10 11  1  0  0  0  0
 11 12  2  0  0  0  0
 13 14  1  0  0  0  0
 14 15  2  0  0  0  0
 14 19  1  0  0  0  0
 15 16  1  0  0  0  0
 16 17  2  0  0  0  0
 17 18  1  0  0  0  0
 17 21  1  0  0  0  0
 18 19  2  0  0  0  0
 19 20  1  0  0  0  0
M  END
>  <DSSTox_RID>
20782

>  <DSSTox_CID>
782

>  <DSSTox_Generic_SID>
20782

>  <DSSTox_FileID>
820_CPDBAS_v5d

>  <STRUCTURE_Formula>
C15H10Cl2N2O2

>  <STRUCTURE_MolecularWeight>
321.1622

>  <STRUCTURE_ChemicalType>
defined organic

>  <STRUCTURE_TestedForm_DefinedOrganic>
parent

>  <STRUCTURE_Shown>
tested chemical

>  <TestSubstance_ChemicalName>
Lonidamine

>  <TestSubstance_CASRN>
50264-69-2

>  <TestSubstance_Description>
single chemical compound

>  <STRUCTURE_ChemicalName_IUPAC>
1-[(2,4-dichlorophenyl)methyl]-1H-indazole-3-carboxylic acid

>  <STRUCTURE_SMILES>
OC(=O)C1=NN(C2=C1C=CC=C2)CC3=CC=C(C=C3Cl)Cl

>  <STRUCTURE_Parent_SMILES>
OC(=O)C1=NN(C2=C1C=CC=C2)CC3=CC=C(C=C3Cl)Cl

>  <STRUCTURE_InChI>
InChI=1/C15H10Cl2N2O2/c16-10-6-5-9(12(17)7-10)8-19-13-4-2-1-3-11(13)14(18-19)15(20)21/h1-7H,8H2,(H,20,21)/f/h20H

>  <STRUCTURE_InChIKey>
WDRYRZXSPDWGEB-UYBDAZJACL

>  <StudyType>
Carcinogenicity

>  <Endpoint>
TD50; Tumor Target Sites

>  <Species>
rat

>  <ActivityScore_CPDBAS_Rat>
0

>  <TD50_Rat_Note>
no positive results

>  <TargetSites_Rat_Male>
no positive results

>  <TargetSites_Rat_Female>
no positive results

>  <ActivityOutcome_CPDBAS_Rat>
inactive

>  <ActivityOutcome_CPDBAS_SingleCellCall>
inactive

>  <ActivityOutcome_CPDBAS_MultiCellCall>
inactive

>  <ActivityOutcome_CPDBAS_MultiCellCall_Details>
multisex inactive

>  <ChemicalPage_URL>
http://potency.berkeley.edu/chempages/LONIDAMINE.html

$$$$



 23 25  0  0  0  0  0  0  0  0999 V2000
    3.3708   -3.1309    0.0000 C   0  0  0  0  0  0  0  0  0  0  0  0
    3.3708   -1.8054    0.0000 C   0  0  0  0  0  0  0  0  0  0  0  0
    4.5135   -3.7936    0.0000 C   0  0  0  0  0  0  0  0  0  0  0  0
    2.1025   -3.5536    0.0000 S   0  0  0  0  0  0  0  0  0  0  0  0
    4.5135   -1.1426    0.0000 S   0  0  0  0  0  0  0  0  0  0  0  0
    2.1025   -1.3826    0.0000 C   0  0  0  0  0  0  0  0  0  0  0  0
    5.6790   -3.1309    0.0000 C   0  0  0  0  0  0  0  0  0  0  0  0
    4.5135   -5.1305    0.0000 O   0  0  0  0  0  0  0  0  0  0  0  0
    1.3255   -2.4681    0.0000 C   0  0  0  0  0  0  0  0  0  0  0  0
    5.6790   -1.8054    0.0000 N   0  0  0  0  0  0  0  0  0  0  0  0
    3.8507    0.0000    0.0000 O   0  0  0  0  0  0  0  0  0  0  0  0
    5.1762    0.0000    0.0000 O   0  0  0  0  0  0  0  0  0  0  0  0
    6.8216   -3.7936    0.0000 C   0  0  0  0  0  0  0  0  0  0  0  0
    0.0000   -2.4681    0.0000 Cl  0  0  0  0  0  0  0  0  0  0  0  0
    6.8216   -1.1426    0.0000 C   0  0  0  0  0  0  0  0  0  0  0  0
    7.9757   -3.1309    0.0000 N   0  0  0  0  0  0  0  0  0  0  0  0
    6.8216   -5.1305    0.0000 O   0  0  0  0  0  0  0  0  0  0  0  0
    9.1183   -3.7936    0.0000 C   0  0  0  0  0  0  0  0  0  0  0  0
   10.2724   -3.1309    0.0000 C   0  0  0  0  0  0  0  0  0  0  0  0
    9.1183   -5.1305    0.0000 N   0  0  0  0  0  0  0  0  0  0  0  0
   11.4265   -3.7936    0.0000 C   0  0  0  0  0  0  0  0  0  0  0  0
   10.2724   -5.7932    0.0000 C   0  0  0  0  0  0  0  0  0  0  0  0
   11.4265   -5.1305    0.0000 C   0  0  0  0  0  0  0  0  0  0  0  0
  1  2  2  0  0  0  0
  1  3  1  0  0  0  0
  1  4  1  0  0  0  0
  2  5  1  0  0  0  0
  2  6  1  0  0  0  0
  3  7  2  0  0  0  0
  3  8  1  0  0  0  0
  4  9  1  0  0  0  0
  5 10  1  0  0  0  0
  5 11  2  0  0  0  0
  5 12  2  0  0  0  0
  6  9  2  0  0  0  0
  7 13  1  0  0  0  0
  7 10  1  0  0  0  0
  9 14  1  0  0  0  0
 10 15  1  0  0  0  0
 13 16  1  0  0  0  0
 13 17  2  0  0  0  0
 16 18  1  0  0  0  0
 18 19  1  0  0  0  0
 18 20  2  0  0  0  0
 19 21  2  0  0  0  0
 20 22  1  0  0  0  0
 21 23  1  0  0  0  0
 22 23  2  0  0  0  0
M  END
>  <DSSTox_RID>
20783

>  <DSSTox_CID>
783

>  <DSSTox_Generic_SID>
20783

>  <DSSTox_FileID>
821_CPDBAS_v5d

>  <STRUCTURE_Formula>
C13H10ClN3O4S2

>  <STRUCTURE_MolecularWeight>
371.8192

>  <STRUCTURE_ChemicalType>
defined organic

>  <STRUCTURE_TestedForm_DefinedOrganic>
parent

>  <STRUCTURE_Shown>
tested chemical

>  <TestSubstance_ChemicalName>
Lornoxicam

>  <TestSubstance_CASRN>
70374-39-9

>  <TestSubstance_Description>
single chemical compound

>  <STRUCTURE_ChemicalName_IUPAC>
6-chloro-4-hydroxy-2-methyl-N-pyridin-2-yl-2H-thieno[2,3-e][1,2]thiazine-3-carboxamide 1,1-dioxide

>  <STRUCTURE_SMILES>
OC(C(SC(Cl)=C1)=C1S(N2C)(=O)=O)=C2C(NC3=NC=CC=C3)=O

>  <STRUCTURE_Parent_SMILES>
OC(C(SC(Cl)=C1)=C1S(N2C)(=O)=O)=C2C(NC3=NC=CC=C3)=O

>  <STRUCTURE_InChI>
InChI=1/C13H10ClN3O4S2/c1-17-10(13(19)16-9-4-2-3-5-15-9)11(18)12-7(23(17,20)21)6-8(14)22-12/h2-6,18H,1H3,(H,15,16,19)/f/h16H

>  <STRUCTURE_InChIKey>
WLHQHAUOOXYABV-WYUMXYHSCZ

>  <StudyType>
Carcinogenicity

>  <Endpoint>
TD50; Tumor Target Sites

>  <Species>
rat

>  <ActivityScore_CPDBAS_Rat>
0

>  <TD50_Rat_Note>
no positive results

>  <TargetSites_Rat_Male>
no positive results

>  <TargetSites_Rat_Female>
no positive results

>  <ActivityOutcome_CPDBAS_Rat>
inactive

>  <ActivityOutcome_CPDBAS_SingleCellCall>
inactive

>  <ActivityOutcome_CPDBAS_MultiCellCall>
inactive

>  <ActivityOutcome_CPDBAS_MultiCellCall_Details>
multisex inactive

>  <Note_CPDBAS>
Rat added v3a; chemical added v3a

>  <ChemicalPage_URL>
http://potency.berkeley.edu/chempages/LORNOXICAM.html

$$$$



 30 32  0  0  1  0  0  0  0  0999 V2000
    5.7467   -7.9746    0.0000 C   0  0  0  0  0  0  0  0  0  0  0  0
    5.7467   -6.6629    0.0000 C   0  0  2  0  0  0  0  0  0  0  0  0
    4.6120   -5.9966    0.0000 C   0  0  1  0  0  0  0  0  0  0  0  0
    9.2239   -0.6871    0.0000 C   0  0  0  0  0  0  0  0  0  0  0  0
    3.4564   -4.0081    0.0000 C   0  0  0  0  0  0  0  0  0  0  0  0
    6.9231   -8.6305    0.0000 C   0  0  0  0  0  0  0  0  0  0  0  0
    4.6120   -8.6305    0.0000 C   0  0  0  0  0  0  0  0  0  0  0  0
    4.6120   -4.6640    0.0000 O   0  0  0  0  0  0  0  0  0  0  0  0
    6.9231   -5.9966    0.0000 C   0  0  1  0  0  0  0  0  0  0  0  0
    9.2239   -1.9989    0.0000 O   0  0  0  0  0  0  0  0  0  0  0  0
    8.0683   -7.9746    0.0000 C   0  0  0  0  0  0  0  0  0  0  0  0
    8.0683   -0.0312    0.0000 C   0  0  0  0  0  0  0  0  0  0  0  0
    6.9231   -4.6640    0.0000 C   0  0  0  0  0  0  0  0  0  0  0  0
    3.4564   -6.6837    0.0000 C   0  0  0  0  0  0  0  0  0  0  0  0
    8.0683   -6.6525    0.0000 C   0  0  2  0  0  0  0  0  0  0  0  0
    8.0683   -2.6652    0.0000 C   0  0  1  0  0  0  0  0  0  0  0  0
    3.4564   -2.6652    0.0000 O   0  0  0  0  0  0  0  0  0  0  0  0
    6.9231   -0.6871    0.0000 C   0  0  1  0  0  0  0  0  0  0  0  0
   10.4107   -0.0208    0.0000 O   0  0  0  0  0  0  0  0  0  0  0  0
    3.4564   -7.9955    0.0000 C   0  0  1  0  0  0  0  0  0  0  0  0
    6.9231   -1.9989    0.0000 C   0  0  0  0  0  0  0  0  0  0  0  0
    2.3112   -4.6744    0.0000 C   0  0  2  0  0  0  0  0  0  0  0  0
    8.0683   -4.0081    0.0000 C   0  0  0  0  0  0  0  0  0  0  0  0
    5.7467    0.0000    0.0000 O   0  0  0  0  0  0  0  0  0  0  0  0
    9.2239   -5.9758    0.0000 C   0  0  0  0  0  0  0  0  0  0  0  0
    2.3112   -8.6826    0.0000 C   0  0  0  0  0  0  0  0  0  0  0  0
    1.1556   -4.0185    0.0000 C   0  0  0  0  0  0  0  0  0  0  0  0
    2.3112   -6.0070    0.0000 C   0  0  0  0  0  0  0  0  0  0  0  0
    0.0000   -4.6952    0.0000 C   0  0  0  0  0  0  0  0  0  0  0  0
    5.7467   -5.3303    0.0000 H   0  0  0  0  0  0  0  0  0  0  0  0
  1  2  1  0  0  0  0
  1  6  1  0  0  0  0
  1  7  2  0  0  0  0
  2  3  1  0  0  0  0
  2  9  1  0  0  0  0
  2 30  1  1  0  0  0
  3  8  1  6  0  0  0
  3 14  1  0  0  0  0
  4 10  1  0  0  0  0
  4 19  2  0  0  0  0
  4 12  1  0  0  0  0
  5  8  1  0  0  0  0
  5 17  2  0  0  0  0
  5 22  1  0  0  0  0
  6 11  2  0  0  0  0
  7 20  1  0  0  0  0
  9 13  1  1  0  0  0
  9 15  1  0  0  0  0
 10 16  1  0  0  0  0
 11 15  1  0  0  0  0
 12 18  1  0  0  0  0
 13 23  1  0  0  0  0
 14 20  1  0  0  0  0
 15 25  1  1  0  0  0
 16 23  1  6  0  0  0
 16 21  1  0  0  0  0
 18 21  1  0  0  0  0
 18 24  1  1  0  0  0
 20 26  1  6  0  0  0
 22 27  1  0  0  0  0
 22 28  1  1  0  0  0
 27 29  1  0  0  0  0
M  END
>  <DSSTox_RID>
20784

>  <DSSTox_CID>
784

>  <DSSTox_Generic_SID>
20784

>  <DSSTox_FileID>
822_CPDBAS_v5d

>  <STRUCTURE_Formula>
C24H36O5

>  <STRUCTURE_MolecularWeight>
404.5396

>  <STRUCTURE_ChemicalType>
defined organic

>  <STRUCTURE_TestedForm_DefinedOrganic>
parent

>  <STRUCTURE_Shown>
tested chemical

>  <TestSubstance_ChemicalName>
Lovastatin

>  <TestSubstance_CASRN>
75330-75-5

>  <TestSubstance_Description>
single chemical compound

>  <ChemicalNote>
stereochem

>  <STRUCTURE_ChemicalName_IUPAC>
(1S,3R,7S,8S,8aR)-8-{2-[(2R,4R)-4-hydroxy-6-oxotetrahydro-2H-pyran-2-yl]ethyl}-3,7-dimethyl-1,2,3,7,8,8a-hexahydronaphthalen-1-yl (2S)-2-methylbutanoate

>  <STRUCTURE_SMILES>
C[C@@H](CC)C(=O)O[C@H]2C[C@@H](C)\C=C3\C=C/[C@H](C)[C@H](CC[C@@H]1C[C@@H](O)CC(=O)O1)[C@@H]23

>  <STRUCTURE_Parent_SMILES>
C[C@@H](CC)C(=O)O[C@H]2C[C@@H](C)\C=C3\C=C/[C@H](C)[C@H](CC[C@@H]1C[C@@H](O)CC(=O)O1)[C@@H]23

>  <STRUCTURE_InChI>
InChI=1/C24H36O5/c1-5-15(3)24(27)29-21-11-14(2)10-17-7-6-16(4)20(23(17)21)9-8-19-12-18(25)13-22(26)28-19/h6-7,10,14-16,18-21,23,25H,5,8-9,11-13H2,1-4H3/t14-,15-,16-,18+,19+,20-,21-,23-/m0/s1

>  <STRUCTURE_InChIKey>
PCZOHLXUXFIOCF-BXMDZJJMBQ

>  <StudyType>
Carcinogenicity

>  <Endpoint>
TD50; Tumor Target Sites

>  <Species>
rat; mouse

>  <ActivityScore_CPDBAS_Rat>
0

>  <TD50_Rat_Note>
no positive results

>  <TargetSites_Rat_Male>
no positive results

>  <TargetSites_Rat_Female>
no positive results

>  <ActivityOutcome_CPDBAS_Rat>
inactive

>  <TD50_Mouse_mg>
515

>  <TD50_Mouse_mmol>
1.27

>  <ActivityScore_CPDBAS_Mouse>
27

>  <TD50_Mouse_Note>
TD50 is harmonic mean of more than one positive test

>  <TargetSites_Mouse_Male>
liver

>  <TargetSites_Mouse_Female>
liver; lung; stomach

>  <ActivityOutcome_CPDBAS_Mouse>
active

>  <ActivityOutcome_CPDBAS_SingleCellCall>
active

>  <ActivityOutcome_CPDBAS_MultiCellCall>
active

>  <ActivityOutcome_CPDBAS_MultiCellCall_Details>
multisite active; multisex active

>  <Note_CPDBAS>
Rat added v2a; Mouse added v2a

>  <ChemicalPage_URL>
http://potency.berkeley.edu/chempages/LOVASTATIN.html

$$$$



 26 28  0  0  0  0  0  0  0  0999 V2000
    3.9983   -6.0382    0.0000 C   0  0  0  0  0  0  0  0  0  0  0  0
    4.6674   -4.8958    0.0000 C   0  0  0  0  0  0  0  0  0  0  0  0
    2.6601   -6.0382    0.0000 C   0  0  0  0  0  0  0  0  0  0  0  0
    4.6674   -7.1805    0.0000 C   0  0  0  0  0  0  0  0  0  0  0  0
    5.9892   -4.8958    0.0000 C   0  0  0  0  0  0  0  0  0  0  0  0
    2.0073   -4.8958    0.0000 N   0  0  0  0  0  0  0  0  0  0  0  0
    5.9892   -7.1805    0.0000 C   0  0  0  0  0  0  0  0  0  0  0  0
    6.6583   -6.0382    0.0000 C   0  0  0  0  0  0  0  0  0  0  0  0
    6.6583   -3.7371    0.0000 O   0  0  0  0  0  0  0  0  0  0  0  0
    0.6691   -4.8958    0.0000 C   0  0  0  0  0  0  0  0  0  0  0  0
    2.6601   -3.7371    0.0000 C   0  0  0  0  0  0  0  0  0  0  0  0
    7.9802   -3.7371    0.0000 C   0  0  0  0  0  0  0  0  0  0  0  0
    0.0000   -3.7371    0.0000 C   0  0  0  0  0  0  0  0  0  0  0  0
    2.0073   -2.5785    0.0000 C   0  0  0  0  0  0  0  0  0  0  0  0
    8.6493   -2.5785    0.0000 C   0  0  0  0  0  0  0  0  0  0  0  0
    0.6691   -2.5785    0.0000 C   0  0  0  0  0  0  0  0  0  0  0  0
    9.9875   -2.5785    0.0000 C   0  0  0  0  0  0  0  0  0  0  0  0
   10.6403   -1.4361    0.0000 N   0  0  0  0  0  0  0  0  0  0  0  0
   11.9785   -1.4361    0.0000 C   0  0  0  0  0  0  0  0  0  0  0  0
   12.7618   -0.3590    0.0000 N   0  0  0  0  0  0  0  0  0  0  0  0
   12.7618   -2.4969    0.0000 N   0  0  0  0  0  0  0  0  0  0  0  0
   14.0347   -0.7507    0.0000 C   0  0  0  0  0  0  0  0  0  0  0  0
   14.0347   -2.0889    0.0000 N   0  0  0  0  0  0  0  0  0  0  0  0
   12.3375   -3.7861    0.0000 C   0  0  0  0  0  0  0  0  0  0  0  0
   15.0955    0.0000    0.0000 C   0  0  0  0  0  0  0  0  0  0  0  0
   16.3194   -0.5222    0.0000 O   0  0  0  0  0  0  0  0  0  0  0  0
  1  2  2  0  0  0  0
  1  3  1  0  0  0  0
  1  4  1  0  0  0  0
  2  5  1  0  0  0  0
  3  6  1  0  0  0  0
  4  7  2  0  0  0  0
  5  8  2  0  0  0  0
  5  9  1  0  0  0  0
  6 10  1  0  0  0  0
  6 11  1  0  0  0  0
  7  8  1  0  0  0  0
  9 12  1  0  0  0  0
 10 13  1  0  0  0  0
 11 14  1  0  0  0  0
 12 15  1  0  0  0  0
 13 16  1  0  0  0  0
 14 16  1  0  0  0  0
 15 17  1  0  0  0  0
 17 18  1  0  0  0  0
 18 19  1  0  0  0  0
 19 20  2  0  0  0  0
 19 21  1  0  0  0  0
 20 22  1  0  0  0  0
 21 23  1  0  0  0  0
 21 24  1  0  0  0  0
 22 25  1  0  0  0  0
 22 23  2  0  0  0  0
 25 26  1  0  0  0  0
M  END
>  <DSSTox_RID>
20785

>  <DSSTox_CID>
785

>  <DSSTox_Generic_SID>
20785

>  <DSSTox_FileID>
823_CPDBAS_v5d

>  <STRUCTURE_Formula>
C19H29N5O2

>  <STRUCTURE_MolecularWeight>
359.4659

>  <STRUCTURE_ChemicalType>
defined organic

>  <STRUCTURE_TestedForm_DefinedOrganic>
parent

>  <STRUCTURE_Shown>
tested chemical

>  <TestSubstance_ChemicalName>
Loxtidine

>  <TestSubstance_CASRN>
76956-02-0

>  <TestSubstance_Description>
single chemical compound

>  <STRUCTURE_ChemicalName_IUPAC>
{1-methyl-5-[(3-{[3-(piperidin-1-ylmethyl)phenyl]oxy}propyl)amino]-1H-1,2,4-triazol-3-yl}methanol

>  <STRUCTURE_SMILES>
Cn3nc(CO)nc3NCCCOc2cc(CN1CCCCC1)ccc2

>  <STRUCTURE_Parent_SMILES>
Cn3nc(CO)nc3NCCCOc2cc(CN1CCCCC1)ccc2

>  <STRUCTURE_InChI>
InChI=1/C19H29N5O2/c1-23-19(21-18(15-25)22-23)20-9-6-12-26-17-8-5-7-16(13-17)14-24-10-3-2-4-11-24/h5,7-8,13,25H,2-4,6,9-12,14-15H2,1H3,(H,20,21,22)/f/h20H

>  <STRUCTURE_InChIKey>
VTLNPNNUIJHJQB-UYBDAZJACS

>  <StudyType>
Carcinogenicity

>  <Endpoint>
TD50; Tumor Target Sites

>  <Species>
rat

>  <TD50_Rat_mg>
479

>  <TD50_Rat_mmol>
1.33

>  <ActivityScore_CPDBAS_Rat>
24

>  <TD50_Rat_Note>
TD50 is harmonic mean of more than one positive test

>  <TargetSites_Rat_Male>
stomach

>  <TargetSites_Rat_Female>
stomach

>  <ActivityOutcome_CPDBAS_Rat>
active

>  <ActivityOutcome_CPDBAS_SingleCellCall>
active

>  <ActivityOutcome_CPDBAS_MultiCellCall>
active

>  <ActivityOutcome_CPDBAS_MultiCellCall_Details>
multisex active

>  <Note_CPDBAS>
Rat added v2a

>  <ChemicalPage_URL>
http://potency.berkeley.edu/chempages/LOXTIDINE.html

$$$$



 42 49  0  0  0  0  0  0  0  0999 V2000
    4.6167   -1.2731    0.0000 O   0  0  0  0  0  0  0  0  0  0  0  0
    4.4208   -2.5462    0.0000 C   0  0  0  0  0  0  0  0  0  0  0  0
    5.2742   -3.3996    0.0000 C   0  0  3  0  0  0  0  0  0  0  0  0
    5.2742   -2.1125    0.0000 C   0  0  3  0  0  0  0  0  0  0  0  0
    6.0157   -2.6721    0.0000 C   0  0  3  0  0  0  0  0  0  0  0  0
    8.3940   -2.1125    0.0000 C   0  0  3  0  0  0  0  0  0  0  0  0
    9.5132   -1.4690    0.0000 C   0  0  0  0  0  0  0  0  0  0  0  0
    9.5132   -0.1819    0.0000 O   0  0  0  0  0  0  0  0  0  0  0  0
   10.6324   -2.1125    0.0000 C   0  0  0  0  0  0  0  0  0  0  0  0
   11.7516   -1.4690    0.0000 C   0  0  0  0  0  0  0  0  0  0  0  0
   11.7516   -0.1819    0.0000 O   0  0  0  0  0  0  0  0  0  0  0  0
   13.9900   -1.4690    0.0000 C   0  0  0  0  0  0  0  0  0  0  0  0
   12.8708   -2.1125    0.0000 C   0  0  0  0  0  0  0  0  0  0  0  0
   12.8708   -3.4136    0.0000 C   0  0  0  0  0  0  0  0  0  0  0  0
   11.7516   -4.0571    0.0000 C   0  0  0  0  0  0  0  0  0  0  0  0
   10.6324   -3.4136    0.0000 C   0  0  0  0  0  0  0  0  0  0  0  0
    9.5132   -4.0571    0.0000 C   0  0  0  0  0  0  0  0  0  0  0  0
    8.3940   -3.3996    0.0000 C   0  0  0  0  0  0  0  0  0  0  0  0
    7.4847   -4.3229    0.0000 C   0  0  0  0  0  0  0  0  0  0  0  0
    6.1976   -4.3229    0.0000 C   0  0  3  0  0  0  0  0  0  0  0  0
    5.8898   -3.5814    0.0000 C   0  0  3  0  0  0  0  0  0  0  0  0
    4.7146   -3.9592    0.0000 O   0  0  0  0  0  0  0  0  0  0  0  0
    7.9743   -5.5121    0.0000 O   0  0  0  0  0  0  0  0  0  0  0  0
    9.5132   -5.3442    0.0000 O   0  0  0  0  0  0  0  0  0  0  0  0
   11.7516   -5.3442    0.0000 O   0  0  0  0  0  0  0  0  0  0  0  0
    7.4847   -1.2031    0.0000 C   0  0  3  0  0  0  0  0  0  0  0  0
    6.1976   -1.2031    0.0000 C   0  0  3  0  0  0  0  0  0  0  0  0
    5.7079    0.0000    0.0000 O   0  0  0  0  0  0  0  0  0  0  0  0
    6.9810   -3.3436    0.0000 C   0  0  0  0  0  0  0  0  0  0  0  0
    5.2742   -4.6167    0.0000 C   0  0  0  0  0  0  0  0  0  0  0  0
    3.9312   -6.3934    0.0000 O   0  0  0  0  0  0  0  0  0  0  0  0
    4.0711   -5.1064    0.0000 C   0  0  0  0  0  0  0  0  0  0  0  0
    3.0498   -4.3229    0.0000 C   0  0  0  0  0  0  0  0  0  0  0  0
    3.2177   -3.0498    0.0000 C   0  0  0  0  0  0  0  0  0  0  0  0
    2.2104   -2.2384    0.0000 C   0  0  0  0  0  0  0  0  0  0  0  0
    2.3923   -0.9653    0.0000 O   0  0  0  0  0  0  0  0  0  0  0  0
    0.0000   -1.9306    0.0000 C   0  0  0  0  0  0  0  0  0  0  0  0
    1.0213   -2.7281    0.0000 C   0  0  0  0  0  0  0  0  0  0  0  0
    0.8394   -4.0011    0.0000 C   0  0  0  0  0  0  0  0  0  0  0  0
    1.8467   -4.7986    0.0000 C   0  0  0  0  0  0  0  0  0  0  0  0
    1.6648   -6.0717    0.0000 O   0  0  0  0  0  0  0  0  0  0  0  0
    8.4500   -4.2530    0.0000 O   0  0  0  0  0  0  0  0  0  0  0  0
  1  2  2  0  0  0  0
  2  3  1  0  0  0  0
  2 34  1  0  0  0  0
  3  4  1  0  0  0  0
  3 20  1  0  0  0  0
  3 30  1  0  0  0  0
  4  5  1  0  0  0  0
  4 27  1  0  0  0  0
  5  6  1  0  0  0  0
  5 21  1  0  0  0  0
  6  7  1  0  0  0  0
  6 18  1  0  0  0  0
  6 26  1  0  0  0  0
  7  8  2  0  0  0  0
  7  9  1  0  0  0  0
  9 10  2  0  0  0  0
  9 16  1  0  0  0  0
 10 11  1  0  0  0  0
 10 13  1  0  0  0  0
 12 13  1  0  0  0  0
 13 14  2  0  0  0  0
 14 15  1  0  0  0  0
 15 16  2  0  0  0  0
 15 25  1  0  0  0  0
 16 17  1  0  0  0  0
 17 18  1  0  0  0  0
 17 24  2  0  0  0  0
 18 19  2  0  0  0  0
 19 20  1  0  0  0  0
 19 23  1  0  0  0  0
 20 21  1  0  0  0  0
 21 22  1  0  0  0  0
 26 27  1  0  0  0  0
 26 29  1  0  0  0  0
 27 28  1  0  0  0  0
 29 30  2  0  0  0  0
 29 42  1  0  0  0  0
 30 32  1  0  0  0  0
 31 32  2  0  0  0  0
 32 33  1  0  0  0  0
 33 34  2  0  0  0  0
 33 40  1  0  0  0  0
 34 35  1  0  0  0  0
 35 36  1  0  0  0  0
 35 38  2  0  0  0  0
 37 38  1  0  0  0  0
 38 39  1  0  0  0  0
 39 40  2  0  0  0  0
 40 41  1  0  0  0  0
M  END
>  <DSSTox_RID>
20787

>  <DSSTox_CID>
787

>  <DSSTox_Generic_SID>
20787

>  <DSSTox_FileID>
825_CPDBAS_v5d

>  <STRUCTURE_Formula>
C30H22O12

>  <STRUCTURE_MolecularWeight>
574.4966

>  <STRUCTURE_ChemicalType>
defined organic

>  <STRUCTURE_TestedForm_DefinedOrganic>
parent

>  <STRUCTURE_Shown>
tested chemical

>  <TestSubstance_ChemicalName>
Luteoskyrin

>  <TestSubstance_CASRN>
21884-44-6

>  <TestSubstance_Description>
single chemical compound

>  <ChemicalNote>
tautomers

>  <STRUCTURE_ChemicalName_IUPAC>
2,2',4,4'5,5',8,8'-Octahydroxy-2,2',3,3'-tetrahydro-7,7'-dimethyl-1,1'-bianthraquinone

>  <STRUCTURE_SMILES>
O=C1C23C4C5C6(C(=O)C7=C(O)C(C)=CC(=C7C(C6=C(C2C5O)O)=O)O)C(C4O)C(=C3C(=O)C8=C1C(O)=C(C)C=C8O)O

>  <STRUCTURE_Parent_SMILES>
O=C1C23C4C5C6(C(=O)C7=C(O)C(C)=CC(=C7C(C6=C(C2C5O)O)=O)O)C(C4O)C(=C3C(=O)C8=C1C(O)=C(C)C=C8O)O

>  <STRUCTURE_InChI>
InChI=1/C30H22O12/c1-5-3-7(31)9-11(19(5)33)27(41)29-13-14-24(38)17(29)26(40)16-22(36)10-8(32)4-6(2)20(34)12(10)28(42)30(14,16)18(23(13)37)25(39)15(29)21(9)35/h3-4,13-14,17-18,23-24,31-34,37-40H,1-2H3

>  <STRUCTURE_InChIKey>
KXNUPFFSGSRABD-UHFFFAOYAV

>  <StudyType>
Carcinogenicity

>  <Endpoint>
TD50; Tumor Target Sites

>  <Species>
mouse

>  <ActivityOutcome_CPDBAS_Mutagenicity>
inactive

>  <TD50_Mouse_mg>
18.6

>  <TD50_Mouse_mmol>
0.0324

>  <ActivityScore_CPDBAS_Mouse>
45

>  <TD50_Mouse_Note>
TD50 is harmonic mean of more than one positive test

>  <TargetSites_Mouse_Male>
liver

>  <TargetSites_Mouse_Female>
liver

>  <ActivityOutcome_CPDBAS_Mouse>
active

>  <ActivityOutcome_CPDBAS_SingleCellCall>
active

>  <ActivityOutcome_CPDBAS_MultiCellCall>
active

>  <ActivityOutcome_CPDBAS_MultiCellCall_Details>
multisex active

>  <ChemicalPage_URL>
http://potency.berkeley.edu/chempages/LUTEOSKYRIN.html

$$$$



 19 18  0  0  0  0  0  0  0  0999 V2000
    2.3016   -3.3167    0.0000 O   0  0  0  0  0  0  0  0  0  0  0  0
    3.4562   -3.9832    0.0000 C   0  0  0  0  0  0  0  0  0  0  0  0
    4.6031   -3.3167    0.0000 C   0  0  3  0  0  0  0  0  0  0  0  0
    5.7578   -3.9832    0.0000 S   0  0  0  0  0  0  0  0  0  0  0  0
    5.7578   -5.3161    0.0000 P   0  0  0  0  0  0  0  0  0  0  0  0
    4.4249   -5.3161    0.0000 O   0  0  0  0  0  0  0  0  0  0  0  0
    7.0829   -5.3161    0.0000 O   0  0  0  0  0  0  0  0  0  0  0  0
    7.7494   -4.1614    0.0000 C   0  0  0  0  0  0  0  0  0  0  0  0
    5.7578   -6.6412    0.0000 O   0  0  0  0  0  0  0  0  0  0  0  0
    4.6031   -7.3077    0.0000 C   0  0  0  0  0  0  0  0  0  0  0  0
    4.6031   -1.9916    0.0000 C   0  0  0  0  0  0  0  0  0  0  0  0
    3.4562   -1.3251    0.0000 C   0  0  0  0  0  0  0  0  0  0  0  0
    3.4562    0.0000    0.0000 O   0  0  0  0  0  0  0  0  0  0  0  0
    2.3016   -1.9916    0.0000 O   0  0  0  0  0  0  0  0  0  0  0  0
    1.1547   -1.3251    0.0000 C   0  0  0  0  0  0  0  0  0  0  0  0
    0.0000   -1.9916    0.0000 C   0  0  0  0  0  0  0  0  0  0  0  0
    3.4562   -5.3161    0.0000 O   0  0  0  0  0  0  0  0  0  0  0  0
    2.3016   -5.9748    0.0000 C   0  0  0  0  0  0  0  0  0  0  0  0
    2.3016   -7.3077    0.0000 C   0  0  0  0  0  0  0  0  0  0  0  0
  1  2  2  0  0  0  0
  2  3  1  0  0  0  0
  2 17  1  0  0  0  0
  3  4  1  0  0  0  0
  3 11  1  0  0  0  0
  4  5  1  0  0  0  0
  5  6  2  0  0  0  0
  5  7  1  0  0  0  0
  5  9  1  0  0  0  0
  7  8  1  0  0  0  0
  9 10  1  0  0  0  0
 11 12  1  0  0  0  0
 12 13  2  0  0  0  0
 12 14  1  0  0  0  0
 14 15  1  0  0  0  0
 15 16  1  0  0  0  0
 17 18  1  0  0  0  0
 18 19  1  0  0  0  0
M  END
>  <DSSTox_RID>
20790

>  <DSSTox_CID>
790

>  <DSSTox_Generic_SID>
20790

>  <DSSTox_FileID>
828_CPDBAS_v5d

>  <STRUCTURE_Formula>
C10H19O7PS

>  <STRUCTURE_MolecularWeight>
314.2924

>  <STRUCTURE_ChemicalType>
defined organic

>  <STRUCTURE_TestedForm_DefinedOrganic>
parent

>  <STRUCTURE_Shown>
tested chemical

>  <TestSubstance_ChemicalName>
Malaoxon

>  <TestSubstance_CASRN>
1634-78-2

>  <TestSubstance_Description>
single chemical compound

>  <STRUCTURE_ChemicalName_IUPAC>
diethyl 2-[(dimethoxyphosphoryl)thio]succinate

>  <STRUCTURE_SMILES>
O=C(C(SP(=O)(OC)OC)CC(=O)OCC)OCC

>  <STRUCTURE_Parent_SMILES>
O=C(C(SP(=O)(OC)OC)CC(=O)OCC)OCC

>  <STRUCTURE_InChI>
InChI=1/C10H19O7PS/c1-5-16-9(11)7-8(10(12)17-6-2)19-18(13,14-3)15-4/h8H,5-7H2,1-4H3

>  <STRUCTURE_InChIKey>
WSORODGWGUUOBO-UHFFFAOYAC

>  <StudyType>
Carcinogenicity

>  <Endpoint>
TD50; Tumor Target Sites

>  <Species>
rat; mouse

>  <ActivityOutcome_CPDBAS_Mutagenicity>
inactive

>  <ActivityScore_CPDBAS_Rat>
0

>  <TD50_Rat_Note>
no positive results

>  <TargetSites_Rat_Male>
no positive results

>  <TargetSites_Rat_Female>
no positive results

>  <ActivityOutcome_CPDBAS_Rat>
inactive

>  <ActivityScore_CPDBAS_Mouse>
0

>  <TD50_Mouse_Note>
no positive results

>  <TargetSites_Mouse_Male>
no positive results

>  <TargetSites_Mouse_Female>
no positive results

>  <ActivityOutcome_CPDBAS_Mouse>
inactive

>  <ActivityOutcome_CPDBAS_SingleCellCall>
inactive

>  <ActivityOutcome_CPDBAS_MultiCellCall>
inactive

>  <ActivityOutcome_CPDBAS_MultiCellCall_Details>
multisex inactive; multispecies inactive

>  <NTP_TechnicalReport>
TR 135

>  <ChemicalPage_URL>
http://potency.berkeley.edu/chempages/MALAOXON.html

$$$$



 19 18  0  0  0  0  0  0  0  0999 V2000
    2.3016   -3.3167    0.0000 O   0  0  0  0  0  0  0  0  0  0  0  0
    3.4562   -3.9832    0.0000 C   0  0  0  0  0  0  0  0  0  0  0  0
    4.6031   -3.3167    0.0000 C   0  0  3  0  0  0  0  0  0  0  0  0
    5.7578   -3.9832    0.0000 S   0  0  0  0  0  0  0  0  0  0  0  0
    5.7578   -5.3161    0.0000 P   0  0  0  0  0  0  0  0  0  0  0  0
    4.4249   -5.3161    0.0000 S   0  0  0  0  0  0  0  0  0  0  0  0
    7.0829   -5.3161    0.0000 O   0  0  0  0  0  0  0  0  0  0  0  0
    7.7494   -4.1614    0.0000 C   0  0  0  0  0  0  0  0  0  0  0  0
    5.7578   -6.6412    0.0000 O   0  0  0  0  0  0  0  0  0  0  0  0
    4.6031   -7.3077    0.0000 C   0  0  0  0  0  0  0  0  0  0  0  0
    4.6031   -1.9916    0.0000 C   0  0  0  0  0  0  0  0  0  0  0  0
    3.4562   -1.3251    0.0000 C   0  0  0  0  0  0  0  0  0  0  0  0
    3.4562    0.0000    0.0000 O   0  0  0  0  0  0  0  0  0  0  0  0
    2.3016   -1.9916    0.0000 O   0  0  0  0  0  0  0  0  0  0  0  0
    1.1547   -1.3251    0.0000 C   0  0  0  0  0  0  0  0  0  0  0  0
    0.0000   -1.9916    0.0000 C   0  0  0  0  0  0  0  0  0  0  0  0
    3.4562   -5.3161    0.0000 O   0  0  0  0  0  0  0  0  0  0  0  0
    2.3016   -5.9748    0.0000 C   0  0  0  0  0  0  0  0  0  0  0  0
    2.3016   -7.3077    0.0000 C   0  0  0  0  0  0  0  0  0  0  0  0
  1  2  2  0  0  0  0
  2  3  1  0  0  0  0
  2 17  1  0  0  0  0
  3  4  1  0  0  0  0
  3 11  1  0  0  0  0
  4  5  1  0  0  0  0
  5  6  2  0  0  0  0
  5  7  1  0  0  0  0
  5  9  1  0  0  0  0
  7  8  1  0  0  0  0
  9 10  1  0  0  0  0
 11 12  1  0  0  0  0
 12 13  2  0  0  0  0
 12 14  1  0  0  0  0
 14 15  1  0  0  0  0
 15 16  1  0  0  0  0
 17 18  1  0  0  0  0
 18 19  1  0  0  0  0
M  END
>  <DSSTox_RID>
20791

>  <DSSTox_CID>
791

>  <DSSTox_Generic_SID>
20791

>  <DSSTox_FileID>
829_CPDBAS_v5d

>  <STRUCTURE_Formula>
C10H19O6PS2

>  <STRUCTURE_MolecularWeight>
330.358

>  <STRUCTURE_ChemicalType>
defined organic

>  <STRUCTURE_TestedForm_DefinedOrganic>
parent

>  <STRUCTURE_Shown>
tested chemical

>  <TestSubstance_ChemicalName>
Malathion

>  <TestSubstance_CASRN>
121-75-5

>  <TestSubstance_Description>
single chemical compound

>  <STRUCTURE_ChemicalName_IUPAC>
diethyl 2-[(dimethoxyphosphorothioyl)thio]succinate

>  <STRUCTURE_SMILES>
O=C(C(SP(=S)(OC)OC)CC(=O)OCC)OCC

>  <STRUCTURE_Parent_SMILES>
O=C(C(SP(=S)(OC)OC)CC(=O)OCC)OCC

>  <STRUCTURE_InChI>
InChI=1/C10H19O6PS2/c1-5-15-9(11)7-8(10(12)16-6-2)19-17(18,13-3)14-4/h8H,5-7H2,1-4H3

>  <STRUCTURE_InChIKey>
JXSJBGJIGXNWCI-UHFFFAOYAK

>  <StudyType>
Carcinogenicity

>  <Endpoint>
TD50; Tumor Target Sites

>  <Species>
rat; mouse

>  <ActivityOutcome_CPDBAS_Mutagenicity>
inactive

>  <ActivityScore_CPDBAS_Rat>
0

>  <TD50_Rat_Note>
no positive results

>  <TargetSites_Rat_Male>
no positive results

>  <TargetSites_Rat_Female>
no positive results

>  <ActivityOutcome_CPDBAS_Rat>
inactive

>  <ActivityScore_CPDBAS_Mouse>
0

>  <TD50_Mouse_Note>
no positive results

>  <TargetSites_Mouse_Male>
no positive results

>  <TargetSites_Mouse_Female>
no positive results

>  <ActivityOutcome_CPDBAS_Mouse>
inactive

>  <ActivityOutcome_CPDBAS_SingleCellCall>
inactive

>  <ActivityOutcome_CPDBAS_MultiCellCall>
inactive

>  <ActivityOutcome_CPDBAS_MultiCellCall_Details>
multisex inactive; multispecies inactive

>  <ChemicalPage_URL>
http://potency.berkeley.edu/chempages/MALATHION.html

$$$$



  8  8  0  0  0  0  0  0  0  0999 V2000
    0.0000   -1.1545    0.0000 O   0  0  0  0  0  0  0  0  0  0  0  0
    1.3300   -1.1545    0.0000 C   0  0  0  0  0  0  0  0  0  0  0  0
    1.9950    0.0000    0.0000 C   0  0  0  0  0  0  0  0  0  0  0  0
    3.3250    0.0000    0.0000 C   0  0  0  0  0  0  0  0  0  0  0  0
    3.9900   -1.1545    0.0000 C   0  0  0  0  0  0  0  0  0  0  0  0
    5.3201   -1.1545    0.0000 O   0  0  0  0  0  0  0  0  0  0  0  0
    3.3250   -2.3036    0.0000 N   0  0  0  0  0  0  0  0  0  0  0  0
    1.9950   -2.3036    0.0000 N   0  0  0  0  0  0  0  0  0  0  0  0
  1  2  2  0  0  0  0
  2  3  1  0  0  0  0
  2  8  1  0  0  0  0
  3  4  2  0  0  0  0
  4  5  1  0  0  0  0
  5  6  2  0  0  0  0
  5  7  1  0  0  0  0
  7  8  1  0  0  0  0
M  END
>  <DSSTox_RID>
20792

>  <DSSTox_CID>
792

>  <DSSTox_Generic_SID>
20792

>  <DSSTox_FileID>
830_CPDBAS_v5d

>  <STRUCTURE_Formula>
C4H4N2O2

>  <STRUCTURE_MolecularWeight>
112.0868

>  <STRUCTURE_ChemicalType>
defined organic

>  <STRUCTURE_TestedForm_DefinedOrganic>
parent

>  <STRUCTURE_Shown>
tested chemical

>  <TestSubstance_ChemicalName>
Maleic hydrazide

>  <TestSubstance_CASRN>
123-33-1

>  <TestSubstance_Description>
single chemical compound

>  <STRUCTURE_ChemicalName_IUPAC>
1,2-dihydropyridazine-3,6-dione

>  <STRUCTURE_SMILES>
O=C1C=CC(=O)NN1

>  <STRUCTURE_Parent_SMILES>
O=C1C=CC(=O)NN1

>  <STRUCTURE_InChI>
InChI=1/C4H4N2O2/c7-3-1-2-4(8)6-5-3/h1-2H,(H,5,7)(H,6,8)/f/h5-6H

>  <STRUCTURE_InChIKey>
BGRDGMRNKXEXQD-JYEHRPOACL

>  <StudyType>
Carcinogenicity

>  <Endpoint>
TD50; Tumor Target Sites

>  <Species>
rat; mouse

>  <ActivityOutcome_CPDBAS_Mutagenicity>
inactive

>  <ActivityScore_CPDBAS_Rat>
0

>  <TD50_Rat_Note>
no positive results

>  <TargetSites_Rat_Male>
no positive results

>  <TargetSites_Rat_Female>
no positive results

>  <ActivityOutcome_CPDBAS_Rat>
inactive

>  <ActivityScore_CPDBAS_Mouse>
0

>  <TD50_Mouse_Note>
no positive results

>  <TargetSites_Mouse_Male>
no positive results

>  <TargetSites_Mouse_Female>
no positive results

>  <ActivityOutcome_CPDBAS_Mouse>
inactive

>  <ActivityOutcome_CPDBAS_SingleCellCall>
inactive

>  <ActivityOutcome_CPDBAS_MultiCellCall>
inactive

>  <ActivityOutcome_CPDBAS_MultiCellCall_Details>
multisex inactive; multispecies inactive

>  <ChemicalPage_URL>
http://potency.berkeley.edu/chempages/MALEIC%20HYDRAZIDE.html

$$$$



 12 11  0  0  1  0  0  0  0  0999 V2000
    1.3263   -2.2989    0.0000 C   0  0  1  0  0  0  0  0  0  0  0  0
    2.0015   -3.4403    0.0000 C   0  0  2  0  0  0  0  0  0  0  0  0
    1.3263   -4.5978    0.0000 C   0  0  1  0  0  0  0  0  0  0  0  0
    2.0015   -5.7392    0.0000 C   0  0  1  0  0  0  0  0  0  0  0  0
    1.3263   -6.8967    0.0000 C   0  0  0  0  0  0  0  0  0  0  0  0
    2.0015   -1.1414    0.0000 C   0  0  0  0  0  0  0  0  0  0  0  0
    3.3278   -3.4403    0.0000 O   0  0  0  0  0  0  0  0  0  0  0  0
    0.0000   -4.5978    0.0000 O   0  0  0  0  0  0  0  0  0  0  0  0
    3.3278   -5.7392    0.0000 O   0  0  0  0  0  0  0  0  0  0  0  0
    2.0015   -8.0382    0.0000 O   0  0  0  0  0  0  0  0  0  0  0  0
    1.3263    0.0000    0.0000 O   0  0  0  0  0  0  0  0  0  0  0  0
    0.0000   -2.2989    0.0000 O   0  0  0  0  0  0  0  0  0  0  0  0
  1  2  1  0  0  0  0
  1  6  1  0  0  0  0
  1 12  1  6  0  0  0
  2  3  1  0  0  0  0
  2  7  1  1  0  0  0
  3  4  1  0  0  0  0
  3  8  1  1  0  0  0
  4  5  1  0  0  0  0
  4  9  1  6  0  0  0
  5 10  1  0  0  0  0
  6 11  1  0  0  0  0
M  END
>  <DSSTox_RID>
20797

>  <DSSTox_CID>
3235

>  <DSSTox_Generic_SID>
23235

>  <DSSTox_FileID>
835_CPDBAS_v5d

>  <STRUCTURE_Formula>
C6H14O6

>  <STRUCTURE_MolecularWeight>
182.1718

>  <STRUCTURE_ChemicalType>
defined organic

>  <STRUCTURE_TestedForm_DefinedOrganic>
parent

>  <STRUCTURE_Shown>
tested chemical

>  <TestSubstance_ChemicalName>
d-Mannitol

>  <TestSubstance_CASRN>
69-65-8

>  <TestSubstance_Description>
single chemical compound

>  <ChemicalNote>
stereochem

>  <STRUCTURE_ChemicalName_IUPAC>
D-mannitol

>  <STRUCTURE_SMILES>
O[C@@H]([C@H](O)[C@H](O)CO)[C@H](O)CO

>  <STRUCTURE_Parent_SMILES>
O[C@@H]([C@H](O)[C@H](O)CO)[C@H](O)CO

>  <STRUCTURE_InChI>
InChI=1/C6H14O6/c7-1-3(9)5(11)6(12)4(10)2-8/h3-12H,1-2H2/t3-,4-,5-,6-/m1/s1

>  <STRUCTURE_InChIKey>
FBPFZTCFMRRESA-KVTDHHQDBH

>  <StudyType>
Carcinogenicity

>  <Endpoint>
TD50; Tumor Target Sites

>  <Species>
rat; mouse

>  <ActivityOutcome_CPDBAS_Mutagenicity>
inactive

>  <ActivityScore_CPDBAS_Rat>
0

>  <TD50_Rat_Note>
no positive results

>  <TargetSites_Rat_Male>
no positive results

>  <TargetSites_Rat_Female>
no positive results

>  <ActivityOutcome_CPDBAS_Rat>
inactive

>  <ActivityScore_CPDBAS_Mouse>
0

>  <TD50_Mouse_Note>
no positive results

>  <TargetSites_Mouse_Male>
no positive results

>  <TargetSites_Mouse_Female>
no positive results

>  <ActivityOutcome_CPDBAS_Mouse>
inactive

>  <ActivityOutcome_CPDBAS_SingleCellCall>
inactive

>  <ActivityOutcome_CPDBAS_MultiCellCall>
inactive

>  <ActivityOutcome_CPDBAS_MultiCellCall_Details>
multisex inactive; multispecies inactive

>  <NTP_TechnicalReport>
TR 236

>  <ChemicalPage_URL>
http://potency.berkeley.edu/chempages/D-MANNITOL.html

$$$$



 18 17  0  0  1  0  0  0  0  0999 V2000
    1.9759   -3.4346    0.0000 C   0  0  1  0  0  0  0  0  0  0  0  0
    2.6483   -4.5932    0.0000 C   0  0  2  0  0  0  0  0  0  0  0  0
    1.9759   -5.7518    0.0000 C   0  0  1  0  0  0  0  0  0  0  0  0
    2.6483   -6.9105    0.0000 C   0  0  1  0  0  0  0  0  0  0  0  0
    1.9759   -8.0484    0.0000 C   0  0  0  0  0  0  0  0  0  0  0  0
    2.6483   -2.2966    0.0000 C   0  0  0  0  0  0  0  0  0  0  0  0
    3.9828   -4.5932    0.0000 O   0  0  0  0  0  0  0  0  0  0  0  0
    0.6414   -5.7518    0.0000 O   0  0  0  0  0  0  0  0  0  0  0  0
    3.9828   -6.9105    0.0000 O   0  0  0  0  0  0  0  0  0  0  0  0
    2.6483   -9.2071    0.0000 N   0  0  0  0  0  0  0  0  0  0  0  0
    1.9759   -1.1380    0.0000 N   0  0  0  0  0  0  0  0  0  0  0  0
    0.6414   -3.4346    0.0000 O   0  0  0  0  0  0  0  0  0  0  0  0
    2.6380    0.0000    0.0000 C   0  0  0  0  0  0  0  0  0  0  0  0
    3.9828    0.0000    0.0000 C   0  0  0  0  0  0  0  0  0  0  0  0
    4.6242   -1.1380    0.0000 Cl  0  0  0  0  0  0  0  0  0  0  0  0
    1.9759  -10.3450    0.0000 C   0  0  0  0  0  0  0  0  0  0  0  0
    0.6414  -10.3450    0.0000 C   0  0  0  0  0  0  0  0  0  0  0  0
    0.0000   -9.2071    0.0000 Cl  0  0  0  0  0  0  0  0  0  0  0  0
  1  2  1  0  0  0  0
  1  6  1  0  0  0  0
  1 12  1  6  0  0  0
  2  3  1  0  0  0  0
  2  7  1  1  0  0  0
  3  4  1  0  0  0  0
  3  8  1  1  0  0  0
  4  5  1  0  0  0  0
  4  9  1  6  0  0  0
  5 10  1  0  0  0  0
  6 11  1  0  0  0  0
 10 16  1  0  0  0  0
 11 13  1  0  0  0  0
 13 14  1  0  0  0  0
 14 15  1  0  0  0  0
 16 17  1  0  0  0  0
 17 18  1  0  0  0  0
M  END
>  <DSSTox_RID>
20798

>  <DSSTox_CID>
798

>  <DSSTox_Generic_SID>
20798

>  <DSSTox_FileID>
836_CPDBAS_v5d

>  <STRUCTURE_Formula>
C10H22Cl2N2O4

>  <STRUCTURE_MolecularWeight>
305.19868

>  <STRUCTURE_ChemicalType>
defined organic

>  <STRUCTURE_TestedForm_DefinedOrganic>
parent

>  <STRUCTURE_Shown>
tested chemical

>  <TestSubstance_ChemicalName>
Mannitol nitrogen mustard

>  <TestSubstance_CASRN>
576-68-1

>  <TestSubstance_Description>
single chemical compound

>  <ChemicalNote>
stereochem

>  <STRUCTURE_ChemicalName_IUPAC>
1,6-bis[(2-chloroethyl)amino]-1,6-dideoxy-D-mannitol

>  <STRUCTURE_SMILES>
O[C@H]([C@H](O)CNCCCl)[C@H](O)[C@H](O)CNCCCl

>  <STRUCTURE_Parent_SMILES>
O[C@H]([C@H](O)CNCCCl)[C@H](O)[C@H](O)CNCCCl

>  <STRUCTURE_InChI>
InChI=1/C10H22Cl2N2O4/c11-1-3-13-5-7(15)9(17)10(18)8(16)6-14-4-2-12/h7-10,13-18H,1-6H2/t7-,8-,9-,10-/m1/s1

>  <STRUCTURE_InChIKey>
MQXVYODZCMMZEM-ZYUZMQFOBO

>  <StudyType>
Carcinogenicity

>  <Endpoint>
TD50; Tumor Target Sites

>  <Species>
rat

>  <ActivityScore_CPDBAS_Rat>
0

>  <TD50_Rat_Note>
no positive results

>  <TargetSites_Rat_Male>
no positive results

>  <ActivityOutcome_CPDBAS_Rat>
inactive

>  <ActivityOutcome_CPDBAS_SingleCellCall>
inactive

>  <ChemicalPage_URL>
http://potency.berkeley.edu/chempages/MANNITOL%20NITROGEN%20MUSTARD.html

$$$$



 16 18  0  0  0  0  0  0  0  0999 V2000
    2.5945    0.0000    0.0000 C   0  0  0  0  0  0  0  0  0  0  0  0
    3.2540   -1.1523    0.0000 C   0  0  0  0  0  0  0  0  0  0  0  0
    4.5874   -1.1523    0.0000 C   0  0  0  0  0  0  0  0  0  0  0  0
    5.2542   -2.3046    0.0000 C   0  0  0  0  0  0  0  0  0  0  0  0
    6.5804   -2.3046    0.0000 N   0  0  0  0  0  0  0  0  0  0  0  0
    7.2471   -3.4569    0.0000 C   0  0  0  0  0  0  0  0  0  0  0  0
    6.5804   -4.6092    0.0000 C   0  0  0  0  0  0  0  0  0  0  0  0
    5.2542   -4.6092    0.0000 C   0  0  0  0  0  0  0  0  0  0  0  0
    4.5874   -3.4569    0.0000 C   0  0  0  0  0  0  0  0  0  0  0  0
    3.2540   -3.4569    0.0000 C   0  0  0  0  0  0  0  0  0  0  0  0
    2.3698   -4.4425    0.0000 N   0  0  0  0  0  0  0  0  0  0  0  0
    1.1523   -3.9062    0.0000 C   0  0  0  0  0  0  0  0  0  0  0  0
    0.0000   -4.5729    0.0000 N   0  0  0  0  0  0  0  0  0  0  0  0
    1.2900   -2.5800    0.0000 N   0  0  0  0  0  0  0  0  0  0  0  0
    0.3044   -1.6886    0.0000 C   0  0  0  0  0  0  0  0  0  0  0  0
    2.5945   -2.3046    0.0000 C   0  0  0  0  0  0  0  0  0  0  0  0
  1  2  1  0  0  0  0
  2  3  2  0  0  0  0
  2 16  1  0  0  0  0
  3  4  1  0  0  0  0
  4  5  2  0  0  0  0
  4  9  1  0  0  0  0
  5  6  1  0  0  0  0
  6  7  2  0  0  0  0
  7  8  1  0  0  0  0
  8  9  2  0  0  0  0
  9 10  1  0  0  0  0
 10 11  1  0  0  0  0
 10 16  2  0  0  0  0
 11 12  2  0  0  0  0
 12 13  1  0  0  0  0
 12 14  1  0  0  0  0
 14 15  1  0  0  0  0
 14 16  1  0  0  0  0
M  END
>  <DSSTox_RID>
20800

>  <DSSTox_CID>
800

>  <DSSTox_Generic_SID>
20800

>  <DSSTox_FileID>
838_CPDBAS_v5d

>  <STRUCTURE_Formula>
C12H12N4

>  <STRUCTURE_MolecularWeight>
212.2536

>  <STRUCTURE_ChemicalType>
defined organic

>  <STRUCTURE_TestedForm_DefinedOrganic>
parent

>  <STRUCTURE_Shown>
tested chemical

>  <TestSubstance_ChemicalName>
MeIQ

>  <TestSubstance_CASRN>
77094-11-2

>  <TestSubstance_Description>
single chemical compound

>  <STRUCTURE_ChemicalName_IUPAC>
3,4-dimethyl-3H-imidazo[4,5-f]quinolin-2-amine

>  <STRUCTURE_SMILES>
NC(N3C)=NC2=C3C(C)=CC1=NC=CC=C12

>  <STRUCTURE_Parent_SMILES>
NC(N3C)=NC2=C3C(C)=CC1=NC=CC=C12

>  <STRUCTURE_InChI>
InChI=1/C12H12N4/c1-7-6-9-8(4-3-5-14-9)10-11(7)16(2)12(13)15-10/h3-6H,1-2H3,(H2,13,15)/f/h13H2

>  <STRUCTURE_InChIKey>
GMGWMIJIGUYNAY-DLGLGFIGCR

>  <StudyType>
Carcinogenicity

>  <Endpoint>
TD50; Tumor Target Sites

>  <Species>
mouse

>  <ActivityOutcome_CPDBAS_Mutagenicity>
active

>  <TD50_Mouse_mg>
15.5

>  <TD50_Mouse_mmol>
0.073

>  <ActivityScore_CPDBAS_Mouse>
41

>  <TD50_Mouse_Note>
TD50 is harmonic mean of more than one positive test

>  <TargetSites_Mouse_Male>
stomach

>  <TargetSites_Mouse_Female>
large intestine; liver; stomach

>  <ActivityOutcome_CPDBAS_Mouse>
active

>  <ActivityOutcome_CPDBAS_SingleCellCall>
active

>  <ActivityOutcome_CPDBAS_MultiCellCall>
active

>  <ActivityOutcome_CPDBAS_MultiCellCall_Details>
multisite active; multisex active

>  <Note_CPDBAS>
TD50_Mouse modified v5a; TargetSites_Mouse_Female modified v5a

>  <ChemicalPage_URL>
http://potency.berkeley.edu/chempages/MeIQ.html

$$$$



 16 18  0  0  0  0  0  0  0  0999 V2000
    6.9407   -0.5434    0.0000 C   0  0  0  0  0  0  0  0  0  0  0  0
    5.9554   -1.4273    0.0000 N   0  0  0  0  0  0  0  0  0  0  0  0
    4.6513   -1.1519    0.0000 C   0  0  0  0  0  0  0  0  0  0  0  0
    3.9920   -2.3039    0.0000 C   0  0  0  0  0  0  0  0  0  0  0  0
    2.6589   -2.3039    0.0000 C   0  0  0  0  0  0  0  0  0  0  0  0
    1.9924   -3.4558    0.0000 N   0  0  0  0  0  0  0  0  0  0  0  0
    0.6665   -3.4558    0.0000 C   0  0  0  0  0  0  0  0  0  0  0  0
    0.0000   -2.3039    0.0000 C   0  0  0  0  0  0  0  0  0  0  0  0
    0.6665   -1.1519    0.0000 N   0  0  0  0  0  0  0  0  0  0  0  0
    1.9924   -1.1519    0.0000 C   0  0  0  0  0  0  0  0  0  0  0  0
    2.6589    0.0000    0.0000 C   0  0  0  0  0  0  0  0  0  0  0  0
    3.9920    0.0000    0.0000 C   0  0  0  0  0  0  0  0  0  0  0  0
    0.0000   -4.6078    0.0000 C   0  0  0  0  0  0  0  0  0  0  0  0
    4.8759   -3.2965    0.0000 N   0  0  0  0  0  0  0  0  0  0  0  0
    6.0930   -2.7531    0.0000 C   0  0  0  0  0  0  0  0  0  0  0  0
    7.2450   -3.4196    0.0000 N   0  0  0  0  0  0  0  0  0  0  0  0
  1  2  1  0  0  0  0
  2  3  1  0  0  0  0
  2 15  1  0  0  0  0
  3  4  2  0  0  0  0
  3 12  1  0  0  0  0
  4  5  1  0  0  0  0
  4 14  1  0  0  0  0
  5  6  2  0  0  0  0
  5 10  1  0  0  0  0
  6  7  1  0  0  0  0
  7  8  2  0  0  0  0
  7 13  1  0  0  0  0
  8  9  1  0  0  0  0
  9 10  2  0  0  0  0
 10 11  1  0  0  0  0
 11 12  2  0  0  0  0
 14 15  2  0  0  0  0
 15 16  1  0  0  0  0
M  END
>  <DSSTox_RID>
20801

>  <DSSTox_CID>
801

>  <DSSTox_Generic_SID>
20801

>  <DSSTox_FileID>
839_CPDBAS_v5d

>  <STRUCTURE_Formula>
C11H11N5

>  <STRUCTURE_MolecularWeight>
213.2414

>  <STRUCTURE_ChemicalType>
defined organic

>  <STRUCTURE_TestedForm_DefinedOrganic>
parent

>  <STRUCTURE_Shown>
tested chemical

>  <TestSubstance_ChemicalName>
MeIQx

>  <TestSubstance_CASRN>
77500-04-0

>  <TestSubstance_Description>
single chemical compound

>  <STRUCTURE_ChemicalName_IUPAC>
3,8-dimethyl-3H-imidazo[4,5-f]quinoxalin-2-amine

>  <STRUCTURE_SMILES>
CN1C2=C(C3=NC(=CN=C3C=C2)C)N=C1N

>  <STRUCTURE_Parent_SMILES>
CN1C2=C(C3=NC(=CN=C3C=C2)C)N=C1N

>  <STRUCTURE_InChI>
InChI=1/C11H11N5/c1-6-5-13-7-3-4-8-10(9(7)14-6)15-11(12)16(8)2/h3-5H,1-2H3,(H2,12,15)/f/h12H2

>  <STRUCTURE_InChIKey>
DVCCCQNKIYNAKB-GAJRPKRDCZ

>  <StudyType>
Carcinogenicity

>  <Endpoint>
TD50; Tumor Target Sites

>  <Species>
rat; mouse

>  <ActivityOutcome_CPDBAS_Mutagenicity>
active

>  <TD50_Rat_mg>
1.66

>  <TD50_Rat_mmol>
0.00778

>  <ActivityScore_CPDBAS_Rat>
48

>  <TD50_Rat_Note>
TD50 is harmonic mean of more than one positive test

>  <TargetSites_Rat_Male>
ear Zymbals gland; liver; skin

>  <TargetSites_Rat_Female>
clitoral gland; ear Zymbals gland; liver

>  <ActivityOutcome_CPDBAS_Rat>
active

>  <TD50_Mouse_mg>
24.3

>  <TD50_Mouse_mmol>
0.114

>  <ActivityScore_CPDBAS_Mouse>
39

>  <TD50_Mouse_Note>
TD50 is harmonic mean of more than one positive test

>  <TargetSites_Mouse_Male>
hematopoietic system; liver

>  <TargetSites_Mouse_Female>
liver; lung

>  <ActivityOutcome_CPDBAS_Mouse>
active

>  <ActivityOutcome_CPDBAS_SingleCellCall>
active

>  <ActivityOutcome_CPDBAS_MultiCellCall>
active

>  <ActivityOutcome_CPDBAS_MultiCellCall_Details>
multisite active; multisex active; multispecies active

>  <ChemicalPage_URL>
http://potency.berkeley.edu/chempages/MeIQx.html

$$$$



  9  9  0  0  0  0  0  0  0  0999 V2000
    0.0000   -2.3037    0.0000 N   0  0  0  0  0  0  0  0  0  0  0  0
    1.3315   -2.3037    0.0000 C   0  0  0  0  0  0  0  0  0  0  0  0
    1.9950   -1.1518    0.0000 N   0  0  0  0  0  0  0  0  0  0  0  0
    3.3265   -1.1518    0.0000 C   0  0  0  0  0  0  0  0  0  0  0  0
    3.9899   -2.3037    0.0000 N   0  0  0  0  0  0  0  0  0  0  0  0
    3.3265   -3.4555    0.0000 C   0  0  0  0  0  0  0  0  0  0  0  0
    1.9950   -3.4555    0.0000 N   0  0  0  0  0  0  0  0  0  0  0  0
    3.9899   -4.6073    0.0000 N   0  0  0  0  0  0  0  0  0  0  0  0
    3.9899    0.0000    0.0000 N   0  0  0  0  0  0  0  0  0  0  0  0
  1  2  1  0  0  0  0
  2  3  2  0  0  0  0
  2  7  1  0  0  0  0
  3  4  1  0  0  0  0
  4  5  2  0  0  0  0
  4  9  1  0  0  0  0
  5  6  1  0  0  0  0
  6  7  2  0  0  0  0
  6  8  1  0  0  0  0
M  END
>  <DSSTox_RID>
20802

>  <DSSTox_CID>
802

>  <DSSTox_Generic_SID>
20802

>  <DSSTox_FileID>
840_CPDBAS_v5d

>  <STRUCTURE_Formula>
C3H6N6

>  <STRUCTURE_MolecularWeight>
126.1199

>  <STRUCTURE_ChemicalType>
defined organic

>  <STRUCTURE_TestedForm_DefinedOrganic>
parent

>  <STRUCTURE_Shown>
tested chemical

>  <TestSubstance_ChemicalName>
Melamine

>  <TestSubstance_CASRN>
108-78-1

>  <TestSubstance_Description>
single chemical compound

>  <STRUCTURE_ChemicalName_IUPAC>
1,3,5-triazine-2,4,6-triamine

>  <STRUCTURE_SMILES>
NC1=NC(=NC(=N1)N)N

>  <STRUCTURE_Parent_SMILES>
NC1=NC(=NC(=N1)N)N

>  <STRUCTURE_InChI>
InChI=1/C3H6N6/c4-1-7-2(5)9-3(6)8-1/h(H6,4,5,6,7,8,9)/f/h4-6H2

>  <STRUCTURE_InChIKey>
JDSHMPZPIAZGSV-SANQDLDUCX

>  <StudyType>
Carcinogenicity

>  <Endpoint>
TD50; Tumor Target Sites

>  <Species>
rat; mouse

>  <ActivityOutcome_CPDBAS_Mutagenicity>
inactive

>  <TD50_Rat_mg>
735

>  <TD50_Rat_mmol>
5.83

>  <ActivityScore_CPDBAS_Rat>
18

>  <TargetSites_Rat_Male>
urinary bladder

>  <TargetSites_Rat_Female>
no positive results

>  <ActivityOutcome_CPDBAS_Rat>
active

>  <ActivityScore_CPDBAS_Mouse>
0

>  <TD50_Mouse_Note>
no positive results

>  <TargetSites_Mouse_Male>
no positive results

>  <TargetSites_Mouse_Female>
no positive results

>  <ActivityOutcome_CPDBAS_Mouse>
inactive

>  <ActivityOutcome_CPDBAS_SingleCellCall>
active

>  <NTP_TechnicalReport>
TR 245

>  <ChemicalPage_URL>
http://potency.berkeley.edu/chempages/MELAMINE.html

$$$$



 23 25  0  0  0  0  0  0  0  0999 V2000
    2.2743   -2.3657    0.0000 C   0  0  0  0  0  0  0  0  0  0  0  0
    2.2743   -3.7143    0.0000 C   0  0  0  0  0  0  0  0  0  0  0  0
    3.4057   -1.7028    0.0000 C   0  0  0  0  0  0  0  0  0  0  0  0
    1.0857   -1.7028    0.0000 C   0  0  0  0  0  0  0  0  0  0  0  0
    3.4057   -4.4228    0.0000 S   0  0  0  0  0  0  0  0  0  0  0  0
    1.0857   -4.3771    0.0000 C   0  0  0  0  0  0  0  0  0  0  0  0
    4.5600   -2.3657    0.0000 C   0  0  0  0  0  0  0  0  0  0  0  0
    3.4057   -0.3429    0.0000 O   0  0  0  0  0  0  0  0  0  0  0  0
    0.0000   -2.3657    0.0000 C   0  0  0  0  0  0  0  0  0  0  0  0
    4.5600   -3.7600    0.0000 N   0  0  0  0  0  0  0  0  0  0  0  0
    4.0228   -5.5543    0.0000 O   0  0  0  0  0  0  0  0  0  0  0  0
    2.7200   -5.5543    0.0000 O   0  0  0  0  0  0  0  0  0  0  0  0
    0.0000   -3.7143    0.0000 C   0  0  0  0  0  0  0  0  0  0  0  0
    5.7371   -1.7028    0.0000 C   0  0  0  0  0  0  0  0  0  0  0  0
    5.7371   -4.3771    0.0000 C   0  0  0  0  0  0  0  0  0  0  0  0
    6.9142   -2.3657    0.0000 N   0  0  0  0  0  0  0  0  0  0  0  0
    5.7371   -0.3429    0.0000 O   0  0  0  0  0  0  0  0  0  0  0  0
    8.0571   -1.7028    0.0000 C   0  0  0  0  0  0  0  0  0  0  0  0
    8.0685   -0.3657    0.0000 N   0  0  0  0  0  0  0  0  0  0  0  0
    9.2799   -2.1028    0.0000 S   0  0  0  0  0  0  0  0  0  0  0  0
    9.3142    0.0000    0.0000 C   0  0  0  0  0  0  0  0  0  0  0  0
   10.1142   -1.0629    0.0000 C   0  0  0  0  0  0  0  0  0  0  0  0
   11.4285   -1.0286    0.0000 C   0  0  0  0  0  0  0  0  0  0  0  0
  1  2  2  0  0  0  0
  1  3  1  0  0  0  0
  1  4  1  0  0  0  0
  2  5  1  0  0  0  0
  2  6  1  0  0  0  0
  3  7  2  0  0  0  0
  3  8  1  0  0  0  0
  4  9  2  0  0  0  0
  5 10  1  0  0  0  0
  5 11  2  0  0  0  0
  5 12  2  0  0  0  0
  6 13  2  0  0  0  0
  7 14  1  0  0  0  0
  7 10  1  0  0  0  0
  9 13  1  0  0  0  0
 10 15  1  0  0  0  0
 14 16  1  0  0  0  0
 14 17  2  0  0  0  0
 16 18  1  0  0  0  0
 18 19  2  0  0  0  0
 18 20  1  0  0  0  0
 19 21  1  0  0  0  0
 20 22  1  0  0  0  0
 21 22  2  0  0  0  0
 22 23  1  0  0  0  0
M  END
>  <DSSTox_RID>
20803

>  <DSSTox_CID>
803

>  <DSSTox_Generic_SID>
20803

>  <DSSTox_FileID>
841_CPDBAS_v5d

>  <STRUCTURE_Formula>
C14H13N3O4S2

>  <STRUCTURE_MolecularWeight>
351.4007

>  <STRUCTURE_ChemicalType>
defined organic

>  <STRUCTURE_TestedForm_DefinedOrganic>
parent

>  <STRUCTURE_Shown>
tested chemical

>  <TestSubstance_ChemicalName>
Meloxicam

>  <TestSubstance_CASRN>
71125-38-7

>  <TestSubstance_Description>
single chemical compound

>  <STRUCTURE_ChemicalName_IUPAC>
4-hydroxy-2-methyl-N-(5-methyl-1,3-thiazol-2-yl)-2H-1,2-benzothiazine-3-carboxamide 1,1-dioxide

>  <STRUCTURE_SMILES>
OC(C(C=CC=C1)=C1S(N2C)(=O)=O)=C2C(NC3=NC=C(C)S3)=O

>  <STRUCTURE_Parent_SMILES>
OC(C(C=CC=C1)=C1S(N2C)(=O)=O)=C2C(NC3=NC=C(C)S3)=O

>  <STRUCTURE_InChI>
InChI=1/C14H13N3O4S2/c1-8-7-15-14(22-8)16-13(19)11-12(18)9-5-3-4-6-10(9)23(20,21)17(11)2/h3-7,18H,1-2H3,(H,15,16,19)/f/h16H

>  <STRUCTURE_InChIKey>
ZRVUJXDFFKFLMG-WYUMXYHSCR

>  <StudyType>
Carcinogenicity

>  <Endpoint>
TD50; Tumor Target Sites

>  <Species>
rat

>  <ActivityScore_CPDBAS_Rat>
0

>  <TD50_Rat_Note>
no positive results

>  <TargetSites_Rat_Male>
no positive results

>  <TargetSites_Rat_Female>
no positive results

>  <ActivityOutcome_CPDBAS_Rat>
inactive

>  <ActivityOutcome_CPDBAS_SingleCellCall>
inactive

>  <ActivityOutcome_CPDBAS_MultiCellCall>
inactive

>  <ActivityOutcome_CPDBAS_MultiCellCall_Details>
multisex inactive

>  <Note_CPDBAS>
Rat added v3a; chemical added v3a

>  <ChemicalPage_URL>
http://potency.berkeley.edu/chempages/MELOXICAM.html

$$$$



 19 19  0  0  1  0  0  0  0  0999 V2000
    0.0000   -2.3082    0.0000 O   0  0  0  0  0  0  0  0  0  0  0  0
    0.6595   -1.1488    0.0000 C   0  0  0  0  0  0  0  0  0  0  0  0
    0.0000    0.0000    0.0000 O   0  0  0  0  0  0  0  0  0  0  0  0
    1.9891   -1.1488    0.0000 C   0  0  1  0  0  0  0  0  0  0  0  0
    2.6592    0.0000    0.0000 N   0  0  0  0  0  0  0  0  0  0  0  0
    2.6592   -2.3082    0.0000 C   0  0  0  0  0  0  0  0  0  0  0  0
    3.9888   -2.3082    0.0000 C   0  0  0  0  0  0  0  0  0  0  0  0
    4.6589   -1.1488    0.0000 C   0  0  0  0  0  0  0  0  0  0  0  0
    5.9885   -1.1488    0.0000 C   0  0  0  0  0  0  0  0  0  0  0  0
    6.6480   -2.3082    0.0000 C   0  0  0  0  0  0  0  0  0  0  0  0
    5.9885   -3.4570    0.0000 C   0  0  0  0  0  0  0  0  0  0  0  0
    4.6589   -3.4570    0.0000 C   0  0  0  0  0  0  0  0  0  0  0  0
    7.9776   -2.3082    0.0000 N   0  0  0  0  0  0  0  0  0  0  0  0
    8.6477   -1.1488    0.0000 C   0  0  0  0  0  0  0  0  0  0  0  0
    9.9667   -1.1488    0.0000 C   0  0  0  0  0  0  0  0  0  0  0  0
   10.6368    0.0000    0.0000 Cl  0  0  0  0  0  0  0  0  0  0  0  0
    8.6477   -3.4570    0.0000 C   0  0  0  0  0  0  0  0  0  0  0  0
    9.9667   -3.4570    0.0000 C   0  0  0  0  0  0  0  0  0  0  0  0
   10.6368   -2.3082    0.0000 Cl  0  0  0  0  0  0  0  0  0  0  0  0
  1  2  1  0  0  0  0
  2  3  2  0  0  0  0
  2  4  1  0  0  0  0
  4  5  1  1  0  0  0
  4  6  1  0  0  0  0
  6  7  1  0  0  0  0
  7  8  1  0  0  0  0
  7 12  2  0  0  0  0
  8  9  2  0  0  0  0
  9 10  1  0  0  0  0
 10 11  2  0  0  0  0
 10 13  1  0  0  0  0
 11 12  1  0  0  0  0
 13 14  1  0  0  0  0
 13 17  1  0  0  0  0
 14 15  1  0  0  0  0
 15 16  1  0  0  0  0
 17 18  1  0  0  0  0
 18 19  1  0  0  0  0
M  END
>  <DSSTox_RID>
20804

>  <DSSTox_CID>
804

>  <DSSTox_Generic_SID>
20804

>  <DSSTox_FileID>
842_CPDBAS_v5d

>  <STRUCTURE_Formula>
C13H18Cl2N2O2

>  <STRUCTURE_MolecularWeight>
305.2002

>  <STRUCTURE_ChemicalType>
defined organic

>  <STRUCTURE_TestedForm_DefinedOrganic>
parent

>  <STRUCTURE_Shown>
tested chemical

>  <TestSubstance_ChemicalName>
Melphalan

>  <TestSubstance_CASRN>
148-82-3

>  <TestSubstance_Description>
single chemical compound

>  <ChemicalNote>
l form shown, stereochem

>  <STRUCTURE_ChemicalName_IUPAC>
4-[bis(2-chloroethyl)amino]-L-phenylalanine

>  <STRUCTURE_SMILES>
OC([C@H](CC1=CC=C(N(CCCl)CCCl)C=C1)N)=O

>  <STRUCTURE_Parent_SMILES>
OC([C@H](CC1=CC=C(N(CCCl)CCCl)C=C1)N)=O

>  <STRUCTURE_InChI>
InChI=1/C13H18Cl2N2O2/c14-5-7-17(8-6-15)11-3-1-10(2-4-11)9-12(16)13(18)19/h1-4,12H,5-9,16H2,(H,18,19)/t12-/m0/s1/f/h18H

>  <STRUCTURE_InChIKey>
SGDBTWWWUNNDEQ-MUSVCJDDDI

>  <StudyType>
Carcinogenicity

>  <Endpoint>
TD50; Tumor Target Sites

>  <Species>
rat; mouse; rhesus; cynomolgus

>  <ActivityOutcome_CPDBAS_Mutagenicity>
active

>  <TD50_Rat_mg>
0.0938

>  <TD50_Rat_mmol>
0.000307

>  <ActivityScore_CPDBAS_Rat>
62

>  <TD50_Rat_Note>
positive test results only by intraperitoneal or intravenous injection; TD50 is harmonic mean of more than one positive test

>  <TargetSites_Rat_Male>
peritoneal cavity

>  <TargetSites_Rat_Female>
peritoneal cavity

>  <ActivityOutcome_CPDBAS_Rat>
active

>  <TD50_Mouse_mg>
0.15

>  <TD50_Mouse_mmol>
0.000491

>  <ActivityScore_CPDBAS_Mouse>
66

>  <TD50_Mouse_Note>
positive test results only by intraperitoneal or intravenous injection; TD50 is harmonic mean of more than one positive test

>  <TargetSites_Mouse_Male>
hematopoietic system; lung

>  <TargetSites_Mouse_Female>
lung

>  <ActivityOutcome_CPDBAS_Mouse>
active

>  <TargetSites_Rhesus>
no positive results

>  <TD50_Cynomolgus_mg>
0.0701

>  <TargetSites_Cynomolgus>
all tumor bearing animals

>  <TD50_Dog_Primates_Note>
no positive results for Rhesus

>  <ActivityOutcome_CPDBAS_Dog_Primates>
active

>  <ActivityOutcome_CPDBAS_SingleCellCall>
active

>  <ActivityOutcome_CPDBAS_MultiCellCall>
active

>  <ActivityOutcome_CPDBAS_MultiCellCall_Details>
multisite active; multisex active; multispecies active

>  <ChemicalPage_URL>
http://potency.berkeley.edu/chempages/MELPHALAN.html

$$$$



 11 11  0  0  0  0  0  0  0  0999 V2000
    1.9925    0.0000    0.0000 O   0  0  0  0  0  0  0  0  0  0  0  0
    2.6567   -1.1488    0.0000 C   0  0  3  0  0  0  0  0  0  0  0  0
    3.9910   -1.1488    0.0000 C   0  0  0  0  0  0  0  0  0  0  0  0
    4.6552   -2.3037    0.0000 C   0  0  3  0  0  0  0  0  0  0  0  0
    3.9910   -3.4525    0.0000 C   0  0  0  0  0  0  0  0  0  0  0  0
    5.9835   -2.3037    0.0000 C   0  0  0  0  0  0  0  0  0  0  0  0
    1.9925   -2.3037    0.0000 C   0  0  3  0  0  0  0  0  0  0  0  0
    2.6567   -3.4525    0.0000 C   0  0  0  0  0  0  0  0  0  0  0  0
    0.6642   -2.3037    0.0000 C   0  0  0  0  0  0  0  0  0  0  0  0
    0.0000   -3.4525    0.0000 C   0  0  0  0  0  0  0  0  0  0  0  0
    0.0000   -1.1488    0.0000 C   0  0  0  0  0  0  0  0  0  0  0  0
  1  2  1  0  0  0  0
  2  3  1  0  0  0  0
  2  7  1  0  0  0  0
  3  4  1  0  0  0  0
  4  5  1  0  0  0  0
  4  6  1  0  0  0  0
  5  8  1  0  0  0  0
  7  8  1  0  0  0  0
  7  9  1  0  0  0  0
  9 10  1  0  0  0  0
  9 11  1  0  0  0  0
M  END
>  <DSSTox_RID>
20805

>  <DSSTox_CID>
805

>  <DSSTox_Generic_SID>
20805

>  <DSSTox_FileID>
843_CPDBAS_v5d

>  <STRUCTURE_Formula>
C10H20O

>  <STRUCTURE_MolecularWeight>
156.2674

>  <STRUCTURE_ChemicalType>
defined organic

>  <STRUCTURE_TestedForm_DefinedOrganic>
parent

>  <STRUCTURE_Shown>
tested chemical

>  <TestSubstance_ChemicalName>
dl-Menthol

>  <TestSubstance_CASRN>
89-78-1

>  <TestSubstance_Description>
single chemical compound

>  <ChemicalNote>
racemic mixture of d- [15356-60-2] and l- [2216-51-5], CASRN [1490-04-6] for mixture of all stereoisomers, absolute stereoconfiguration not known only relative configuration of stereo centers, structure shown without stereochem

>  <STRUCTURE_ChemicalName_IUPAC>
5-methyl-2-(1-methylethyl)cyclohexanol

>  <STRUCTURE_SMILES>
OC(CC(C1)C)C(C1)C(C)C

>  <STRUCTURE_Parent_SMILES>
OC(CC(C1)C)C(C1)C(C)C

>  <STRUCTURE_InChI>
InChI=1/C10H20O/c1-7(2)9-5-4-8(3)6-10(9)11/h7-11H,4-6H2,1-3H3

>  <STRUCTURE_InChIKey>
NOOLISFMXDJSKH-UHFFFAOYAE

>  <StudyType>
Carcinogenicity

>  <Endpoint>
TD50; Tumor Target Sites

>  <Species>
rat; mouse

>  <ActivityOutcome_CPDBAS_Mutagenicity>
inactive

>  <ActivityScore_CPDBAS_Rat>
0

>  <TD50_Rat_Note>
no positive results

>  <TargetSites_Rat_Male>
no positive results

>  <TargetSites_Rat_Female>
no positive results

>  <ActivityOutcome_CPDBAS_Rat>
inactive

>  <ActivityScore_CPDBAS_Mouse>
0

>  <TD50_Mouse_Note>
no positive results

>  <TargetSites_Mouse_Male>
no positive results

>  <TargetSites_Mouse_Female>
no positive results

>  <ActivityOutcome_CPDBAS_Mouse>
inactive

>  <ActivityOutcome_CPDBAS_SingleCellCall>
inactive

>  <ActivityOutcome_CPDBAS_MultiCellCall>
inactive

>  <ActivityOutcome_CPDBAS_MultiCellCall_Details>
multisex inactive; multispecies inactive

>  <Note_CPDBAS>
CPDB uses retired CASRN [15356-70-4]

>  <NTP_TechnicalReport>
TR 98

>  <ChemicalPage_URL>
http://potency.berkeley.edu/chempages/DL-MENTHOL.html

$$$$



 31 33  0  0  0  0  0  0  0  0999 V2000
    2.3058   -1.4523    0.0000 C   0  0  0  0  0  0  0  0  0  0  0  0
    1.1529   -2.1261    0.0000 C   0  0  0  0  0  0  0  0  0  0  0  0
    1.1529   -3.4437    0.0000 N   0  0  0  0  0  0  0  0  0  0  0  0
    0.0000   -4.1175    0.0000 C   0  0  0  0  0  0  0  0  0  0  0  0
    0.0000   -5.4500    0.0000 C   0  0  0  0  0  0  0  0  0  0  0  0
    2.3058   -4.1175    0.0000 C   0  0  0  0  0  0  0  0  0  0  0  0
    2.3058   -5.4500    0.0000 C   0  0  0  0  0  0  0  0  0  0  0  0
    3.4587   -6.1088    0.0000 O   0  0  0  0  0  0  0  0  0  0  0  0
    4.6116   -5.4500    0.0000 C   0  0  0  0  0  0  0  0  0  0  0  0
    4.6116   -4.1175    0.0000 C   0  0  0  0  0  0  0  0  0  0  0  0
    5.7645   -3.4437    0.0000 C   0  0  0  0  0  0  0  0  0  0  0  0
    6.9174   -4.1175    0.0000 C   0  0  0  0  0  0  0  0  0  0  0  0
    6.9174   -5.4500    0.0000 C   0  0  0  0  0  0  0  0  0  0  0  0
    5.7645   -6.1088    0.0000 C   0  0  0  0  0  0  0  0  0  0  0  0
    8.0553   -3.4437    0.0000 C   0  0  3  0  0  0  0  0  0  0  0  0
    8.7291   -4.5966    0.0000 O   0  0  0  0  0  0  0  0  0  0  0  0
    9.2082   -2.7849    0.0000 C   0  0  0  0  0  0  0  0  0  0  0  0
   10.3611   -3.4437    0.0000 C   0  0  0  0  0  0  0  0  0  0  0  0
   11.5140   -2.7849    0.0000 C   0  0  0  0  0  0  0  0  0  0  0  0
   12.6669   -3.4437    0.0000 C   0  0  0  0  0  0  0  0  0  0  0  0
   12.6669   -4.7763    0.0000 C   0  0  0  0  0  0  0  0  0  0  0  0
   13.8198   -5.4500    0.0000 O   0  0  0  0  0  0  0  0  0  0  0  0
   14.9727   -4.7763    0.0000 C   0  0  0  0  0  0  0  0  0  0  0  0
   11.5140   -5.4500    0.0000 C   0  0  0  0  0  0  0  0  0  0  0  0
   10.3611   -4.7763    0.0000 C   0  0  0  0  0  0  0  0  0  0  0  0
    7.3965   -2.2908    0.0000 C   0  0  0  0  0  0  0  0  0  0  0  0
    6.0639   -2.2908    0.0000 C   0  0  0  0  0  0  0  0  0  0  0  0
    5.4051   -1.1529    0.0000 C   0  0  0  0  0  0  0  0  0  0  0  0
    6.0639    0.0000    0.0000 C   0  0  0  0  0  0  0  0  0  0  0  0
    7.3965    0.0000    0.0000 C   0  0  0  0  0  0  0  0  0  0  0  0
    8.0553   -1.1529    0.0000 C   0  0  0  0  0  0  0  0  0  0  0  0
  1  2  1  0  0  0  0
  2  3  1  0  0  0  0
  3  4  1  0  0  0  0
  3  6  1  0  0  0  0
  4  5  1  0  0  0  0
  6  7  1  0  0  0  0
  7  8  1  0  0  0  0
  8  9  1  0  0  0  0
  9 10  2  0  0  0  0
  9 14  1  0  0  0  0
 10 11  1  0  0  0  0
 11 12  2  0  0  0  0
 12 13  1  0  0  0  0
 12 15  1  0  0  0  0
 13 14  2  0  0  0  0
 15 16  1  0  0  0  0
 15 17  1  0  0  0  0
 15 26  1  0  0  0  0
 17 18  1  0  0  0  0
 18 19  2  0  0  0  0
 18 25  1  0  0  0  0
 19 20  1  0  0  0  0
 20 21  2  0  0  0  0
 21 22  1  0  0  0  0
 21 24  1  0  0  0  0
 22 23  1  0  0  0  0
 24 25  2  0  0  0  0
 26 27  2  0  0  0  0
 26 31  1  0  0  0  0
 27 28  1  0  0  0  0
 28 29  2  0  0  0  0
 29 30  1  0  0  0  0
 30 31  2  0  0  0  0
M  END
>  <DSSTox_RID>
20806

>  <DSSTox_CID>
806

>  <DSSTox_Generic_SID>
20806

>  <DSSTox_FileID>
844_CPDBAS_v5d

>  <STRUCTURE_Formula>
C27H33NO3

>  <STRUCTURE_MolecularWeight>
419.5626

>  <STRUCTURE_ChemicalType>
defined organic

>  <STRUCTURE_TestedForm_DefinedOrganic>
parent

>  <STRUCTURE_Shown>
tested chemical

>  <TestSubstance_ChemicalName>
MER-25

>  <TestSubstance_CASRN>
67-98-1

>  <TestSubstance_Description>
single chemical compound

>  <STRUCTURE_ChemicalName_IUPAC>
1-(4-{[2-(diethylamino)ethyl]oxy}phenyl)-2-[4-(methyloxy)phenyl]-1-phenylethanol

>  <STRUCTURE_SMILES>
CCN(CC)CCOC1=CC=C(C=C1)[C](O)(CC2=CC=C(OC)C=C2)C3=CC=CC=C3

>  <STRUCTURE_Parent_SMILES>
CCN(CC)CCOC1=CC=C(C=C1)[C](O)(CC2=CC=C(OC)C=C2)C3=CC=CC=C3

>  <STRUCTURE_InChI>
InChI=1/C27H33NO3/c1-4-28(5-2)19-20-31-26-17-13-24(14-18-26)27(29,23-9-7-6-8-10-23)21-22-11-15-25(30-3)16-12-22/h6-18,29H,4-5,19-21H2,1-3H3

>  <STRUCTURE_InChIKey>
KDYQVUUCWUPJGE-UHFFFAOYAR

>  <StudyType>
Carcinogenicity

>  <Endpoint>
TD50; Tumor Target Sites

>  <Species>
rat

>  <ActivityScore_CPDBAS_Rat>
0

>  <TD50_Rat_Note>
no positive results

>  <TargetSites_Rat_Female>
no positive results

>  <ActivityOutcome_CPDBAS_Rat>
inactive

>  <ActivityOutcome_CPDBAS_SingleCellCall>
inactive

>  <ChemicalPage_URL>
http://potency.berkeley.edu/chempages/MER-25.html

$$$$



 10 11  0  0  0  0  0  0  0  0999 V2000
    0.0000   -1.3294    0.0000 S   0  0  0  0  0  0  0  0  0  0  0  0
    1.3294   -1.3294    0.0000 C   0  0  0  0  0  0  0  0  0  0  0  0
    2.1134   -2.4032    0.0000 N   0  0  0  0  0  0  0  0  0  0  0  0
    3.3747   -1.9941    0.0000 C   0  0  0  0  0  0  0  0  0  0  0  0
    3.3747   -0.6647    0.0000 C   0  0  0  0  0  0  0  0  0  0  0  0
    4.5280    0.0000    0.0000 C   0  0  0  0  0  0  0  0  0  0  0  0
    5.6812   -0.6647    0.0000 C   0  0  0  0  0  0  0  0  0  0  0  0
    5.6812   -1.9941    0.0000 C   0  0  0  0  0  0  0  0  0  0  0  0
    4.5280   -2.6588    0.0000 C   0  0  0  0  0  0  0  0  0  0  0  0
    2.1134   -0.2500    0.0000 S   0  0  0  0  0  0  0  0  0  0  0  0
  1  2  1  0  0  0  0
  2  3  2  0  0  0  0
  2 10  1  0  0  0  0
  3  4  1  0  0  0  0
  4  5  2  0  0  0  0
  4  9  1  0  0  0  0
  5  6  1  0  0  0  0
  5 10  1  0  0  0  0
  6  7  2  0  0  0  0
  7  8  1  0  0  0  0
  8  9  2  0  0  0  0
M  END
>  <DSSTox_RID>
20807

>  <DSSTox_CID>
807

>  <DSSTox_Generic_SID>
20807

>  <DSSTox_FileID>
845_CPDBAS_v5d

>  <STRUCTURE_Formula>
C7H5NS2

>  <STRUCTURE_MolecularWeight>
167.2513

>  <STRUCTURE_ChemicalType>
defined organic

>  <STRUCTURE_TestedForm_DefinedOrganic>
parent

>  <STRUCTURE_Shown>
tested chemical

>  <TestSubstance_ChemicalName>
2-Mercaptobenzothiazole

>  <TestSubstance_CASRN>
149-30-4

>  <TestSubstance_Description>
single chemical compound

>  <ChemicalNote>
tautomers

>  <STRUCTURE_ChemicalName_IUPAC>
1,3-benzothiazole-2-thiol

>  <STRUCTURE_SMILES>
SC1=NC2=C(C=CC=C2)S1

>  <STRUCTURE_Parent_SMILES>
SC1=NC2=C(C=CC=C2)S1

>  <STRUCTURE_InChI>
InChI=1/C7H5NS2/c9-7-8-5-3-1-2-4-6(5)10-7/h1-4H,(H,8,9)/f/h9H

>  <STRUCTURE_InChIKey>
YXIWHUQXZSMYRE-BGGKNDAXCG

>  <StudyType>
Carcinogenicity

>  <Endpoint>
TD50; Tumor Target Sites

>  <Species>
rat; mouse

>  <ActivityOutcome_CPDBAS_Mutagenicity>
inactive

>  <TD50_Rat_mg>
344

>  <TD50_Rat_mmol>
2.06

>  <ActivityScore_CPDBAS_Rat>
22

>  <TD50_Rat_Note>
TD50 is harmonic mean of more than one positive test

>  <TargetSites_Rat_Male>
adrenal gland; hematopoietic system; pancreas; preputial gland

>  <TargetSites_Rat_Female>
adrenal gland; pituitary gland

>  <ActivityOutcome_CPDBAS_Rat>
active

>  <ActivityScore_CPDBAS_Mouse>
0

>  <TD50_Mouse_Note>
no positive results

>  <TargetSites_Mouse_Male>
no positive results

>  <TargetSites_Mouse_Female>
no positive results

>  <ActivityOutcome_CPDBAS_Mouse>
inactive

>  <ActivityOutcome_CPDBAS_SingleCellCall>
active

>  <ActivityOutcome_CPDBAS_MultiCellCall>
active

>  <ActivityOutcome_CPDBAS_MultiCellCall_Details>
multisite active; multisex active

>  <NTP_TechnicalReport>
TR 332

>  <ChemicalPage_URL>
http://potency.berkeley.edu/chempages/2-MERCAPTOBENZOTHIAZOLE.html

$$$$



 10 11  0  0  0  0  0  0  0  0999 V2000
    3.4557   -4.0992    0.0000 S   0  0  0  0  0  0  0  0  0  0  0  0
    2.3038   -3.4352    0.0000 C   0  0  0  0  0  0  0  0  0  0  0  0
    1.1519   -4.0992    0.0000 N   0  0  0  0  0  0  0  0  0  0  0  0
    0.0000   -3.4352    0.0000 C   0  0  0  0  0  0  0  0  0  0  0  0
    0.0000   -2.1029    0.0000 N   0  0  0  0  0  0  0  0  0  0  0  0
    1.1519   -1.4388    0.0000 C   0  0  0  0  0  0  0  0  0  0  0  0
    2.3038   -2.1029    0.0000 C   0  0  0  0  0  0  0  0  0  0  0  0
    3.2917   -1.2134    0.0000 N   0  0  0  0  0  0  0  0  0  0  0  0
    2.7506    0.0000    0.0000 C   0  0  0  0  0  0  0  0  0  0  0  0
    1.4265   -0.1394    0.0000 N   0  0  0  0  0  0  0  0  0  0  0  0
  1  2  2  0  0  0  0
  2  3  1  0  0  0  0
  2  7  1  0  0  0  0
  3  4  1  0  0  0  0
  4  5  2  0  0  0  0
  5  6  1  0  0  0  0
  6  7  2  0  0  0  0
  6 10  1  0  0  0  0
  7  8  1  0  0  0  0
  8  9  2  0  0  0  0
  9 10  1  0  0  0  0
M  END
>  <DSSTox_RID>
20810

>  <DSSTox_CID>
810

>  <DSSTox_Generic_SID>
20810

>  <DSSTox_FileID>
848_CPDBAS_v5d

>  <STRUCTURE_Formula>
C5H4N4S

>  <STRUCTURE_MolecularWeight>
152.1771

>  <STRUCTURE_ChemicalType>
defined organic

>  <STRUCTURE_TestedForm_DefinedOrganic>
parent

>  <STRUCTURE_Shown>
tested chemical

>  <TestSubstance_ChemicalName>
6-Mercaptopurine

>  <TestSubstance_CASRN>
50-44-2

>  <TestSubstance_Description>
single chemical compound

>  <ChemicalNote>
tautomers

>  <STRUCTURE_ChemicalName_IUPAC>
1,9-dihydro-6H-purine-6-thione

>  <STRUCTURE_SMILES>
S=C1NC=NC2=C1N=CN2

>  <STRUCTURE_Parent_SMILES>
S=C1NC=NC2=C1N=CN2

>  <STRUCTURE_InChI>
InChI=1/C5H4N4S/c10-5-3-4(7-1-6-3)8-2-9-5/h1-2H,(H2,6,7,8,9,10)/f/h7,9H

>  <STRUCTURE_InChIKey>
GLVAUDGFNGKCSF-AUDIXQRPCF

>  <StudyType>
Carcinogenicity

>  <Endpoint>
TD50; Tumor Target Sites

>  <Species>
rat

>  <ActivityOutcome_CPDBAS_Mutagenicity>
active

>  <ActivityScore_CPDBAS_Rat>
0

>  <TD50_Rat_Note>
no positive results

>  <TargetSites_Rat_Male>
no positive results

>  <TargetSites_Rat_Female>
no positive results

>  <ActivityOutcome_CPDBAS_Rat>
inactive

>  <ActivityOutcome_CPDBAS_SingleCellCall>
inactive

>  <ActivityOutcome_CPDBAS_MultiCellCall>
inactive

>  <ActivityOutcome_CPDBAS_MultiCellCall_Details>
multisex inactive

>  <ChemicalPage_URL>
http://potency.berkeley.edu/chempages/6-MERCAPTOPURINE.html

$$$$



 26 29  0  0  1  0  0  0  0  0999 V2000
    7.8775   -1.6364    0.0000 C   0  0  2  0  0  0  0  0  0  0  0  0
    7.8775   -2.9303    0.0000 C   0  0  2  0  0  0  0  0  0  0  0  0
    6.7485   -3.5772    0.0000 C   0  0  2  0  0  0  0  0  0  0  0  0
    6.7485   -4.8838    0.0000 C   0  0  0  0  0  0  0  0  0  0  0  0
    5.6322   -5.5308    0.0000 C   0  0  0  0  0  0  0  0  0  0  0  0
    4.5032   -4.8838    0.0000 C   0  0  0  0  0  0  0  0  0  0  0  0
    4.5032   -3.5772    0.0000 C   0  0  0  0  0  0  0  0  0  0  0  0
    5.6322   -2.9303    0.0000 C   0  0  1  0  0  0  0  0  0  0  0  0
    5.6322   -1.6364    0.0000 C   0  0  0  0  0  0  0  0  0  0  0  0
    6.7485   -0.9894    0.0000 C   0  0  0  0  0  0  0  0  0  0  0  0
    3.3743   -2.9303    0.0000 C   0  0  0  0  0  0  0  0  0  0  0  0
    2.2453   -3.5772    0.0000 C   0  0  0  0  0  0  0  0  0  0  0  0
    2.2453   -4.8838    0.0000 C   0  0  0  0  0  0  0  0  0  0  0  0
    3.3743   -5.5308    0.0000 C   0  0  0  0  0  0  0  0  0  0  0  0
    9.1080   -3.3362    0.0000 C   0  0  0  0  0  0  0  0  0  0  0  0
    9.8818   -2.2833    0.0000 C   0  0  0  0  0  0  0  0  0  0  0  0
    9.1080   -1.2305    0.0000 C   0  0  2  0  0  0  0  0  0  0  0  0
    9.5139    0.0000    0.0000 O   0  0  0  0  0  0  0  0  0  0  0  0
    7.8775   -0.2791    0.0000 C   0  0  0  0  0  0  0  0  0  0  0  0
    6.7485   -2.4102    0.0000 H   0  0  0  0  0  0  0  0  0  0  0  0
    5.6322   -4.2242    0.0000 H   0  0  0  0  0  0  0  0  0  0  0  0
    7.8775   -4.2242    0.0000 H   0  0  0  0  0  0  0  0  0  0  0  0
   11.0742   -1.2939    0.0000 C   0  0  0  0  0  0  0  0  0  0  0  0
   12.6852   -1.2939    0.0000 C   0  0  0  0  0  0  0  0  0  0  0  0
    1.1290   -5.5308    0.0000 O   0  0  0  0  0  0  0  0  0  0  0  0
    0.0000   -4.8838    0.0000 C   0  0  0  0  0  0  0  0  0  0  0  0
  1  2  1  0  0  0  0
  1 10  1  0  0  0  0
  1 17  1  0  0  0  0
  1 19  1  1  0  0  0
  2  3  1  0  0  0  0
  2 15  1  0  0  0  0
  2 22  1  6  0  0  0
  3  4  1  0  0  0  0
  3  8  1  0  0  0  0
  3 20  1  1  0  0  0
  4  5  1  0  0  0  0
  5  6  1  0  0  0  0
  6  7  2  0  0  0  0
  6 14  1  0  0  0  0
  7  8  1  0  0  0  0
  7 11  1  0  0  0  0
  8  9  1  0  0  0  0
  8 21  1  6  0  0  0
  9 10  1  0  0  0  0
 11 12  2  0  0  0  0
 12 13  1  0  0  0  0
 13 25  1  0  0  0  0
 13 14  2  0  0  0  0
 15 16  1  0  0  0  0
 16 17  1  0  0  0  0
 17 18  1  1  0  0  0
 17 23  1  6  0  0  0
 23 24  3  0  0  0  0
 25 26  1  0  0  0  0
M  END
>  <DSSTox_RID>
20814

>  <DSSTox_CID>
814

>  <DSSTox_Generic_SID>
20814

>  <DSSTox_FileID>
852_CPDBAS_v5d

>  <STRUCTURE_Formula>
C21H26O2

>  <STRUCTURE_MolecularWeight>
310.4352

>  <STRUCTURE_ChemicalType>
defined organic

>  <STRUCTURE_TestedForm_DefinedOrganic>
parent

>  <STRUCTURE_Shown>
tested chemical

>  <TestSubstance_ChemicalName>
Mestranol

>  <TestSubstance_CASRN>
72-33-3

>  <TestSubstance_Description>
single chemical compound

>  <ChemicalNote>
stereochem

>  <STRUCTURE_ChemicalName_IUPAC>
(17beta)-17-ethynyl-3-(methyloxy)estra-1,3,5(10)-trien-17-ol

>  <STRUCTURE_SMILES>
COc3cc4CC[C@@H]1[C@H](CC[C@]2(C)[C@@](O)(CC[C@@H]12)C#C)c4cc3

>  <STRUCTURE_Parent_SMILES>
COc3cc4CC[C@@H]1[C@H](CC[C@]2(C)[C@@](O)(CC[C@@H]12)C#C)c4cc3

>  <STRUCTURE_InChI>
InChI=1/C21H26O2/c1-4-21(22)12-10-19-18-7-5-14-13-15(23-3)6-8-16(14)17(18)9-11-20(19,21)2/h1,6,8,13,17-19,22H,5,7,9-12H2,2-3H3/t17-,18-,19+,20+,21+/m1/s1

>  <STRUCTURE_InChIKey>
IMSSROKUHAOUJS-MJCUULBUBS

>  <StudyType>
Carcinogenicity

>  <Endpoint>
TD50; Tumor Target Sites

>  <Species>
mouse

>  <ActivityOutcome_CPDBAS_Mutagenicity>
inactive

>  <ActivityScore_CPDBAS_Mouse>
0

>  <TD50_Mouse_Note>
no positive results

>  <TargetSites_Mouse_Male>
no positive results

>  <TargetSites_Mouse_Female>
no positive results

>  <ActivityOutcome_CPDBAS_Mouse>
inactive

>  <ActivityOutcome_CPDBAS_SingleCellCall>
inactive

>  <ActivityOutcome_CPDBAS_MultiCellCall>
inactive

>  <ActivityOutcome_CPDBAS_MultiCellCall_Details>
multisex inactive

>  <ChemicalPage_URL>
http://potency.berkeley.edu/chempages/MESTRANOL.html

$$$$



 14 16  0  0  0  0  0  0  0  0999 V2000
    4.4719   -3.1448    0.0000 O   0  0  0  0  0  0  0  0  0  0  0  0
    3.1448   -3.1448    0.0000 P   0  0  0  0  0  0  0  0  0  0  0  0
    3.1448   -4.4719    0.0000 N   0  0  0  0  0  0  0  0  0  0  0  0
    3.8115   -5.6229    0.0000 C   0  0  3  0  0  0  0  0  0  0  0  0
    2.4781   -5.6229    0.0000 C   0  0  0  0  0  0  0  0  0  0  0  0
    4.9625   -6.2896    0.0000 C   0  0  0  0  0  0  0  0  0  0  0  0
    1.8177   -3.1448    0.0000 N   0  0  0  0  0  0  0  0  0  0  0  0
    0.6667   -3.8115    0.0000 C   0  0  3  0  0  0  0  0  0  0  0  0
    0.6667   -2.4781    0.0000 C   0  0  0  0  0  0  0  0  0  0  0  0
    0.0000   -4.9625    0.0000 C   0  0  0  0  0  0  0  0  0  0  0  0
    3.1448   -1.8177    0.0000 N   0  0  0  0  0  0  0  0  0  0  0  0
    2.4781   -0.6667    0.0000 C   0  0  3  0  0  0  0  0  0  0  0  0
    3.8115   -0.6667    0.0000 C   0  0  0  0  0  0  0  0  0  0  0  0
    1.3271    0.0000    0.0000 C   0  0  0  0  0  0  0  0  0  0  0  0
  1  2  2  0  0  0  0
  2  3  1  0  0  0  0
  2  7  1  0  0  0  0
  2 11  1  0  0  0  0
  3  4  1  0  0  0  0
  3  5  1  0  0  0  0
  4  5  1  0  0  0  0
  4  6  1  0  0  0  0
  7  8  1  0  0  0  0
  7  9  1  0  0  0  0
  8  9  1  0  0  0  0
  8 10  1  0  0  0  0
 11 12  1  0  0  0  0
 11 13  1  0  0  0  0
 12 13  1  0  0  0  0
 12 14  1  0  0  0  0
M  END
>  <DSSTox_RID>
20815

>  <DSSTox_CID>
815

>  <DSSTox_Generic_SID>
20815

>  <DSSTox_FileID>
853_CPDBAS_v5d

>  <STRUCTURE_Formula>
C9H18N3OP

>  <STRUCTURE_MolecularWeight>
215.23446

>  <STRUCTURE_ChemicalType>
defined organic

>  <STRUCTURE_TestedForm_DefinedOrganic>
parent

>  <STRUCTURE_Shown>
tested chemical

>  <TestSubstance_ChemicalName>
Metepa

>  <TestSubstance_CASRN>
57-39-6

>  <TestSubstance_Description>
single chemical compound

>  <STRUCTURE_ChemicalName_IUPAC>
1,1',1''-phosphoryltris(2-methylaziridine)

>  <STRUCTURE_SMILES>
O=P(N1C(C1)C)(N1C(C1)C)N1C(C1)C

>  <STRUCTURE_Parent_SMILES>
O=P(N1C(C1)C)(N1C(C1)C)N1C(C1)C

>  <STRUCTURE_InChI>
InChI=1/C9H18N3OP/c1-7-4-10(7)14(13,11-5-8(11)2)12-6-9(12)3/h7-9H,4-6H2,1-3H3

>  <STRUCTURE_InChIKey>
AVUYXHYHTTVPRX-UHFFFAOYAF

>  <StudyType>
Carcinogenicity

>  <Endpoint>
TD50; Tumor Target Sites

>  <Species>
rat

>  <TD50_Rat_mg>
4.46

>  <TD50_Rat_mmol>
0.0207

>  <ActivityScore_CPDBAS_Rat>
43

>  <TargetSites_Rat_Male>
hematopoietic system

>  <ActivityOutcome_CPDBAS_Rat>
active

>  <ActivityOutcome_CPDBAS_SingleCellCall>
active

>  <ChemicalPage_URL>
http://potency.berkeley.edu/chempages/METEPA.html

$$$$



  5  4  0  0  0  0  0  0  0  0999 V2000
    0.0000    0.0000    0.0000 N   0  0  0  0  0  0  0  0  0  0  0  0
    1.1416   -0.6587    0.0000 C   0  0  0  0  0  0  0  0  0  0  0  0
    2.3073   -1.3313    0.0000 C   0  0  0  0  0  0  0  0  0  0  0  0
    2.3073   -2.6625    0.0000 C   0  0  0  0  0  0  0  0  0  0  0  0
    3.4489   -0.6587    0.0000 C   0  0  0  0  0  0  0  0  0  0  0  0
  1  2  3  0  0  0  0
  2  3  1  0  0  0  0
  3  4  2  0  0  0  0
  3  5  1  0  0  0  0
M  END
>  <DSSTox_RID>
40805

>  <DSSTox_CID>
4176

>  <DSSTox_Generic_SID>
24176

>  <DSSTox_FileID>
854_CPDBAS_v5d

>  <STRUCTURE_Formula>
C4H5N

>  <STRUCTURE_MolecularWeight>
67.0892

>  <STRUCTURE_ChemicalType>
defined organic

>  <STRUCTURE_TestedForm_DefinedOrganic>
parent

>  <STRUCTURE_Shown>
tested chemical

>  <TestSubstance_ChemicalName>
Methacrylonitrile

>  <TestSubstance_CASRN>
126-98-7

>  <TestSubstance_Description>
single chemical compound

>  <STRUCTURE_ChemicalName_IUPAC>
2-methylacrylonitrile

>  <STRUCTURE_SMILES>
CC(=C)C#N

>  <STRUCTURE_Parent_SMILES>
CC(=C)C#N

>  <STRUCTURE_InChI>
InChI=1/C4H5N/c1-4(2)3-5/h1H2,2H3

>  <STRUCTURE_InChIKey>
GYCMBHHDWRMZGG-UHFFFAOYAX

>  <StudyType>
Carcinogenicity

>  <Endpoint>
TD50; Tumor Target Sites

>  <Species>
rat; mouse

>  <ActivityOutcome_CPDBAS_Mutagenicity>
inactive

>  <ActivityScore_CPDBAS_Rat>
0

>  <TD50_Rat_Note>
no positive results

>  <TargetSites_Rat_Male>
no positive results

>  <TargetSites_Rat_Female>
no positive results

>  <ActivityOutcome_CPDBAS_Rat>
inactive

>  <ActivityScore_CPDBAS_Mouse>
0

>  <TD50_Mouse_Note>
no positive results

>  <TargetSites_Mouse_Male>
no positive results

>  <TargetSites_Mouse_Female>
no positive results

>  <ActivityOutcome_CPDBAS_Mouse>
inactive

>  <ActivityOutcome_CPDBAS_SingleCellCall>
inactive

>  <ActivityOutcome_CPDBAS_MultiCellCall>
inactive

>  <ActivityOutcome_CPDBAS_MultiCellCall_Details>
multisex inactive; multispecies inactive

>  <Note_CPDBAS>
Rat added v5a; Mouse added v5a; Mutagenicity_SAL_CPDB added v5a; chemical added v5a

>  <ChemicalPage_URL>
http://potency.berkeley.edu/chempages/METHACRYLONITRILE.html

$$$$



 18 19  0  0  0  0  0  0  0  0999 V2000
    2.1073    0.0000    0.0000 C   0  0  0  0  0  0  0  0  0  0  0  0
    3.2553   -0.6684    0.0000 N   0  0  0  0  0  0  0  0  0  0  0  0
    4.4111    0.0000    0.0000 C   0  0  0  0  0  0  0  0  0  0  0  0
    3.2553   -1.9972    0.0000 C   0  0  0  0  0  0  0  0  0  0  0  0
    4.4111   -2.6655    0.0000 C   0  0  0  0  0  0  0  0  0  0  0  0
    4.4111   -3.9944    0.0000 N   0  0  0  0  0  0  0  0  0  0  0  0
    3.2553   -4.6549    0.0000 C   0  0  0  0  0  0  0  0  0  0  0  0
    2.1073   -3.9944    0.0000 C   0  0  0  0  0  0  0  0  0  0  0  0
    0.8885   -4.5369    0.0000 C   0  0  0  0  0  0  0  0  0  0  0  0
    0.0000   -3.5462    0.0000 C   0  0  0  0  0  0  0  0  0  0  0  0
    0.6684   -2.3903    0.0000 C   0  0  0  0  0  0  0  0  0  0  0  0
    1.9657   -2.6734    0.0000 O   0  0  0  0  0  0  0  0  0  0  0  0
    5.5591   -4.6549    0.0000 C   0  0  0  0  0  0  0  0  0  0  0  0
    6.7150   -3.9944    0.0000 C   0  0  0  0  0  0  0  0  0  0  0  0
    7.8630   -4.6549    0.0000 C   0  0  0  0  0  0  0  0  0  0  0  0
    7.8630   -5.9837    0.0000 C   0  0  0  0  0  0  0  0  0  0  0  0
    6.7150   -6.6521    0.0000 C   0  0  0  0  0  0  0  0  0  0  0  0
    5.5591   -5.9837    0.0000 N   0  0  0  0  0  0  0  0  0  0  0  0
  1  2  1  0  0  0  0
  2  3  1  0  0  0  0
  2  4  1  0  0  0  0
  4  5  1  0  0  0  0
  5  6  1  0  0  0  0
  6  7  1  0  0  0  0
  6 13  1  0  0  0  0
  7  8  1  0  0  0  0
  8  9  2  0  0  0  0
  8 12  1  0  0  0  0
  9 10  1  0  0  0  0
 10 11  2  0  0  0  0
 11 12  1  0  0  0  0
 13 14  2  0  0  0  0
 13 18  1  0  0  0  0
 14 15  1  0  0  0  0
 15 16  2  0  0  0  0
 16 17  1  0  0  0  0
 17 18  2  0  0  0  0
M  END
>  <DSSTox_RID>
20816

>  <DSSTox_CID>
816

>  <DSSTox_Generic_SID>
20816

>  <DSSTox_FileID>
855_CPDBAS_v5d

>  <STRUCTURE_Formula>
C14H19N3O

>  <STRUCTURE_MolecularWeight>
245.3236

>  <STRUCTURE_ChemicalType>
defined organic

>  <STRUCTURE_TestedForm_DefinedOrganic>
parent

>  <STRUCTURE_Shown>
tested chemical

>  <TestSubstance_ChemicalName>
Methafurylene

>  <TestSubstance_CASRN>
531-06-6

>  <TestSubstance_Description>
single chemical compound

>  <STRUCTURE_ChemicalName_IUPAC>
N-(furan-2-ylmethyl)-N',N'-dimethyl-N-pyridin-2-ylethane-1,2-diamine

>  <STRUCTURE_SMILES>
CN(C)CCN(CC1=CC=CO1)C2=CC=CC=N2

>  <STRUCTURE_Parent_SMILES>
CN(C)CCN(CC1=CC=CO1)C2=CC=CC=N2

>  <STRUCTURE_InChI>
InChI=1/C14H19N3O/c1-16(2)9-10-17(12-13-6-5-11-18-13)14-7-3-4-8-15-14/h3-8,11H,9-10,12H2,1-2H3

>  <STRUCTURE_InChIKey>
LUQHAHRMUPOTQK-UHFFFAOYAB

>  <StudyType>
Carcinogenicity

>  <Endpoint>
TD50; Tumor Target Sites

>  <Species>
rat

>  <ActivityScore_CPDBAS_Rat>
0

>  <TD50_Rat_Note>
no positive results

>  <TargetSites_Rat_Male>
no positive results

>  <TargetSites_Rat_Female>
no positive results

>  <ActivityOutcome_CPDBAS_Rat>
inactive

>  <ActivityOutcome_CPDBAS_SingleCellCall>
inactive

>  <ActivityOutcome_CPDBAS_MultiCellCall>
inactive

>  <ActivityOutcome_CPDBAS_MultiCellCall_Details>
multisex inactive

>  <ChemicalPage_URL>
http://potency.berkeley.edu/chempages/METHAFURYLENE.html

$$$$



 18 19  0  0  0  0  0  0  0  0999 V2000
    2.1073    0.0000    0.0000 C   0  0  0  0  0  0  0  0  0  0  0  0
    3.2553   -0.6684    0.0000 N   0  0  0  0  0  0  0  0  0  0  0  0
    4.4111    0.0000    0.0000 C   0  0  0  0  0  0  0  0  0  0  0  0
    3.2553   -1.9972    0.0000 C   0  0  0  0  0  0  0  0  0  0  0  0
    4.4111   -2.6655    0.0000 C   0  0  0  0  0  0  0  0  0  0  0  0
    4.4111   -3.9944    0.0000 N   0  0  0  0  0  0  0  0  0  0  0  0
    3.2553   -4.6549    0.0000 C   0  0  0  0  0  0  0  0  0  0  0  0
    2.1073   -3.9944    0.0000 C   0  0  0  0  0  0  0  0  0  0  0  0
    0.8885   -4.5369    0.0000 C   0  0  0  0  0  0  0  0  0  0  0  0
    0.0000   -3.5462    0.0000 C   0  0  0  0  0  0  0  0  0  0  0  0
    0.6684   -2.3903    0.0000 C   0  0  0  0  0  0  0  0  0  0  0  0
    1.9657   -2.6734    0.0000 S   0  0  0  0  0  0  0  0  0  0  0  0
    5.5591   -4.6549    0.0000 C   0  0  0  0  0  0  0  0  0  0  0  0
    6.7150   -3.9944    0.0000 C   0  0  0  0  0  0  0  0  0  0  0  0
    7.8630   -4.6549    0.0000 C   0  0  0  0  0  0  0  0  0  0  0  0
    7.8630   -5.9837    0.0000 C   0  0  0  0  0  0  0  0  0  0  0  0
    6.7150   -6.6521    0.0000 C   0  0  0  0  0  0  0  0  0  0  0  0
    5.5591   -5.9837    0.0000 C   0  0  0  0  0  0  0  0  0  0  0  0
  1  2  1  0  0  0  0
  2  3  1  0  0  0  0
  2  4  1  0  0  0  0
  4  5  1  0  0  0  0
  5  6  1  0  0  0  0
  6  7  1  0  0  0  0
  6 13  1  0  0  0  0
  7  8  1  0  0  0  0
  8  9  2  0  0  0  0
  8 12  1  0  0  0  0
  9 10  1  0  0  0  0
 10 11  2  0  0  0  0
 11 12  1  0  0  0  0
 13 14  2  0  0  0  0
 13 18  1  0  0  0  0
 14 15  1  0  0  0  0
 15 16  2  0  0  0  0
 16 17  1  0  0  0  0
 17 18  2  0  0  0  0
M  END
>  <DSSTox_RID>
20817

>  <DSSTox_CID>
817

>  <DSSTox_Generic_SID>
20817

>  <DSSTox_FileID>
856_CPDBAS_v5d

>  <STRUCTURE_Formula>
C15H20N2S

>  <STRUCTURE_MolecularWeight>
260.3964

>  <STRUCTURE_ChemicalType>
defined organic

>  <STRUCTURE_TestedForm_DefinedOrganic>
parent

>  <STRUCTURE_Shown>
tested chemical

>  <TestSubstance_ChemicalName>
Methaphenilene

>  <TestSubstance_CASRN>
493-78-7

>  <TestSubstance_Description>
single chemical compound

>  <STRUCTURE_ChemicalName_IUPAC>
N,N-dimethyl-N'-phenyl-N'-(2-thienylmethyl)ethane-1,2-diamine

>  <STRUCTURE_SMILES>
CN(C)CCN(CC1=CC=CS1)C2=CC=CC=C2

>  <STRUCTURE_Parent_SMILES>
CN(C)CCN(CC1=CC=CS1)C2=CC=CC=C2

>  <STRUCTURE_InChI>
InChI=1/C15H20N2S/c1-16(2)10-11-17(13-15-9-6-12-18-15)14-7-4-3-5-8-14/h3-9,12H,10-11,13H2,1-2H3

>  <STRUCTURE_InChIKey>
LDYJXVUOVPVZKA-UHFFFAOYAK

>  <StudyType>
Carcinogenicity

>  <Endpoint>
TD50; Tumor Target Sites

>  <Species>
rat

>  <ActivityScore_CPDBAS_Rat>
0

>  <TD50_Rat_Note>
no positive results

>  <TargetSites_Rat_Male>
no positive results

>  <TargetSites_Rat_Female>
no positive results

>  <ActivityOutcome_CPDBAS_Rat>
inactive

>  <ActivityOutcome_CPDBAS_SingleCellCall>
inactive

>  <ActivityOutcome_CPDBAS_MultiCellCall>
inactive

>  <ActivityOutcome_CPDBAS_MultiCellCall_Details>
multisex inactive

>  <ChemicalPage_URL>
http://potency.berkeley.edu/chempages/METHAPHENILENE.html

$$$$



 16 16  0  0  0  0  0  0  0  0999 V2000
    7.6582   -3.9305    0.0000 S   0  0  0  0  0  0  0  0  0  0  0  0
    7.6582   -2.5978    0.0000 P   0  0  0  0  0  0  0  0  0  0  0  0
    6.3351   -2.5978    0.0000 S   0  0  0  0  0  0  0  0  0  0  0  0
    5.6688   -1.4486    0.0000 C   0  0  0  0  0  0  0  0  0  0  0  0
    4.3361   -1.4486    0.0000 N   0  0  0  0  0  0  0  0  0  0  0  0
    3.5539   -2.5205    0.0000 C   0  0  0  0  0  0  0  0  0  0  0  0
    3.9691   -3.7856    0.0000 O   0  0  0  0  0  0  0  0  0  0  0  0
    2.2888   -2.1149    0.0000 S   0  0  0  0  0  0  0  0  0  0  0  0
    2.2888   -0.7822    0.0000 C   0  0  0  0  0  0  0  0  0  0  0  0
    3.5539   -0.3766    0.0000 N   0  0  0  0  0  0  0  0  0  0  0  0
    1.2168    0.0000    0.0000 O   0  0  0  0  0  0  0  0  0  0  0  0
    0.0000   -0.5408    0.0000 C   0  0  0  0  0  0  0  0  0  0  0  0
    7.6582   -1.2748    0.0000 O   0  0  0  0  0  0  0  0  0  0  0  0
    8.8170   -0.6084    0.0000 C   0  0  0  0  0  0  0  0  0  0  0  0
    8.9909   -2.5978    0.0000 O   0  0  0  0  0  0  0  0  0  0  0  0
    9.6572   -3.7567    0.0000 C   0  0  0  0  0  0  0  0  0  0  0  0
  1  2  2  0  0  0  0
  2  3  1  0  0  0  0
  2 13  1  0  0  0  0
  2 15  1  0  0  0  0
  3  4  1  0  0  0  0
  4  5  1  0  0  0  0
  5  6  1  0  0  0  0
  5 10  1  0  0  0  0
  6  7  2  0  0  0  0
  6  8  1  0  0  0  0
  8  9  1  0  0  0  0
  9 10  2  0  0  0  0
  9 11  1  0  0  0  0
 11 12  1  0  0  0  0
 13 14  1  0  0  0  0
 15 16  1  0  0  0  0
M  END
>  <DSSTox_RID>
20819

>  <DSSTox_CID>
819

>  <DSSTox_Generic_SID>
20819

>  <DSSTox_FileID>
858_CPDBAS_v5d

>  <STRUCTURE_Formula>
C6H11N2O4PS3

>  <STRUCTURE_MolecularWeight>
302.3313

>  <STRUCTURE_ChemicalType>
defined organic

>  <STRUCTURE_TestedForm_DefinedOrganic>
parent

>  <STRUCTURE_Shown>
tested chemical

>  <TestSubstance_ChemicalName>
Methidathion

>  <TestSubstance_CASRN>
950-37-8

>  <TestSubstance_Description>
single chemical compound

>  <STRUCTURE_ChemicalName_IUPAC>
S-[(5-methoxy-2-oxo-1,3,4-thiadiazol-3(2H)-yl)methyl] O,O-dimethyl dithiophosphate

>  <STRUCTURE_SMILES>
S=P(SCN1C(=O)SC(=N1)OC)(OC)OC

>  <STRUCTURE_Parent_SMILES>
S=P(SCN1C(=O)SC(=N1)OC)(OC)OC

>  <STRUCTURE_InChI>
InChI=1/C6H11N2O4PS3/c1-10-5-7-8(6(9)16-5)4-15-13(14,11-2)12-3/h4H2,1-3H3

>  <STRUCTURE_InChIKey>
MEBQXILRKZHVCX-UHFFFAOYAL

>  <StudyType>
Carcinogenicity

>  <Endpoint>
TD50; Tumor Target Sites

>  <Species>
mouse

>  <TD50_Mouse_mg>
6.04

>  <TD50_Mouse_mmol>
0.02

>  <ActivityScore_CPDBAS_Mouse>
47

>  <TargetSites_Mouse_Male>
liver

>  <TargetSites_Mouse_Female>
no positive results

>  <ActivityOutcome_CPDBAS_Mouse>
active

>  <ActivityOutcome_CPDBAS_SingleCellCall>
active

>  <ChemicalPage_URL>
http://potency.berkeley.edu/chempages/METHIDATHION.html

$$$$



  7  7  0  0  0  0  0  0  0  0999 V2000
    2.1116   -3.4168    0.0000 N   0  0  0  0  0  0  0  0  0  0  0  0
    1.3291   -2.3405    0.0000 C   0  0  0  0  0  0  0  0  0  0  0  0
    2.1116   -1.2642    0.0000 N   0  0  0  0  0  0  0  0  0  0  0  0
    3.3758   -1.6742    0.0000 C   0  0  0  0  0  0  0  0  0  0  0  0
    3.3758   -3.0067    0.0000 C   0  0  0  0  0  0  0  0  0  0  0  0
    1.7015    0.0000    0.0000 C   0  0  0  0  0  0  0  0  0  0  0  0
    0.0000   -2.3405    0.0000 S   0  0  0  0  0  0  0  0  0  0  0  0
  1  2  1  0  0  0  0
  1  5  1  0  0  0  0
  2  3  1  0  0  0  0
  2  7  2  0  0  0  0
  3  4  1  0  0  0  0
  3  6  1  0  0  0  0
  4  5  2  0  0  0  0
M  END
>  <DSSTox_RID>
20820

>  <DSSTox_CID>
820

>  <DSSTox_Generic_SID>
20820

>  <DSSTox_FileID>
859_CPDBAS_v5d

>  <STRUCTURE_Formula>
C4H6N2S

>  <STRUCTURE_MolecularWeight>
114.1648

>  <STRUCTURE_ChemicalType>
defined organic

>  <STRUCTURE_TestedForm_DefinedOrganic>
parent

>  <STRUCTURE_Shown>
tested chemical

>  <TestSubstance_ChemicalName>
Methimazole

>  <TestSubstance_CASRN>
60-56-0

>  <TestSubstance_Description>
single chemical compound

>  <ChemicalNote>
tautomers

>  <STRUCTURE_ChemicalName_IUPAC>
1-methyl-1,3-dihydro-2H-imidazole-2-thione

>  <STRUCTURE_SMILES>
N/1C(N(\C=C\1)C)=S

>  <STRUCTURE_Parent_SMILES>
N\1C(N(/C=C/1)C)=S

>  <STRUCTURE_InChI>
InChI=1/C4H6N2S/c1-6-3-2-5-4(6)7/h2-3H,1H3,(H,5,7)/f/h5H

>  <STRUCTURE_InChIKey>
PMRYVIKBURPHAH-JSWHHWTPCU

>  <StudyType>
Carcinogenicity

>  <Endpoint>
TD50; Tumor Target Sites

>  <Species>
rat

>  <ActivityOutcome_CPDBAS_Mutagenicity>
inactive

>  <TD50_Rat_mg>
1.14

>  <TD50_Rat_mmol>
0.00999

>  <ActivityScore_CPDBAS_Rat>
46

>  <TD50_Rat_Note>
TD50 is harmonic mean of more than one positive test

>  <TargetSites_Rat_Male>
thyroid gland

>  <TargetSites_Rat_Female>
thyroid gland

>  <ActivityOutcome_CPDBAS_Rat>
active

>  <ActivityOutcome_CPDBAS_SingleCellCall>
active

>  <ActivityOutcome_CPDBAS_MultiCellCall>
active

>  <ActivityOutcome_CPDBAS_MultiCellCall_Details>
multisex active

>  <ChemicalPage_URL>
http://potency.berkeley.edu/chempages/METHIMAZOLE.html

$$$$



  9  8  0  0  0  0  0  0  0  0999 V2000
    2.2992   -3.3210    0.0000 N   0  0  0  0  0  0  0  0  0  0  0  0
    2.2992   -1.9954    0.0000 C   0  0  3  0  0  0  0  0  0  0  0  0
    1.1530   -1.3257    0.0000 C   0  0  0  0  0  0  0  0  0  0  0  0
    1.1530    0.0000    0.0000 O   0  0  0  0  0  0  0  0  0  0  0  0
    0.0000   -1.9954    0.0000 O   0  0  0  0  0  0  0  0  0  0  0  0
    3.4522   -1.3257    0.0000 C   0  0  0  0  0  0  0  0  0  0  0  0
    4.6053   -1.9954    0.0000 C   0  0  0  0  0  0  0  0  0  0  0  0
    5.7514   -1.3257    0.0000 S   0  0  0  0  0  0  0  0  0  0  0  0
    6.9045   -1.9954    0.0000 C   0  0  0  0  0  0  0  0  0  0  0  0
  1  2  1  0  0  0  0
  2  3  1  0  0  0  0
  2  6  1  0  0  0  0
  3  4  2  0  0  0  0
  3  5  1  0  0  0  0
  6  7  1  0  0  0  0
  7  8  1  0  0  0  0
  8  9  1  0  0  0  0
M  END
>  <DSSTox_RID>
20821

>  <DSSTox_CID>
821

>  <DSSTox_Generic_SID>
20821

>  <DSSTox_FileID>
860_CPDBAS_v5d

>  <STRUCTURE_Formula>
C5H11NO2S

>  <STRUCTURE_MolecularWeight>
149.2074

>  <STRUCTURE_ChemicalType>
defined organic

>  <STRUCTURE_TestedForm_DefinedOrganic>
parent

>  <STRUCTURE_Shown>
tested chemical

>  <TestSubstance_ChemicalName>
dl-Methionine

>  <TestSubstance_CASRN>
59-51-8

>  <TestSubstance_Description>
single chemical compound

>  <ChemicalNote>
racemic mixture of d- [348-67-4] and l- [63-68-3] forms

>  <STRUCTURE_ChemicalName_IUPAC>
methionine

>  <STRUCTURE_SMILES>
NC(C(=O)O)CCSC

>  <STRUCTURE_Parent_SMILES>
NC(C(=O)O)CCSC

>  <STRUCTURE_InChI>
InChI=1/C5H11NO2S/c1-9-3-2-4(6)5(7)8/h4H,2-3,6H2,1H3,(H,7,8)/f/h7H

>  <STRUCTURE_InChIKey>
FFEARJCKVFRZRR-QDQILVOLCH

>  <StudyType>
Carcinogenicity

>  <Endpoint>
TD50; Tumor Target Sites

>  <Species>
rat; mouse

>  <ActivityOutcome_CPDBAS_Mutagenicity>
inactive

>  <ActivityScore_CPDBAS_Rat>
0

>  <TD50_Rat_Note>
no positive results

>  <TargetSites_Rat_Male>
no positive results

>  <ActivityOutcome_CPDBAS_Rat>
inactive

>  <ActivityScore_CPDBAS_Mouse>
0

>  <TD50_Mouse_Note>
no positive results

>  <TargetSites_Mouse_Male>
no positive results

>  <ActivityOutcome_CPDBAS_Mouse>
inactive

>  <ActivityOutcome_CPDBAS_SingleCellCall>
inactive

>  <ActivityOutcome_CPDBAS_MultiCellCall>
inactive

>  <ActivityOutcome_CPDBAS_MultiCellCall_Details>
multispecies inactive

>  <ChemicalPage_URL>
http://potency.berkeley.edu/chempages/DL-METHIONINE.html

$$$$



 33 35  0  0  1  0  0  0  0  0999 V2000
   14.9725   -5.3302    0.0000 N   0  0  0  0  0  0  0  0  0  0  0  0
   13.8197   -5.9890    0.0000 C   0  0  0  0  0  0  0  0  0  0  0  0
   12.6668   -5.3302    0.0000 C   0  0  0  0  0  0  0  0  0  0  0  0
   11.5139   -5.9890    0.0000 C   0  0  0  0  0  0  0  0  0  0  0  0
   11.5139   -7.3216    0.0000 N   0  0  0  0  0  0  0  0  0  0  0  0
   12.6668   -7.9804    0.0000 C   0  0  0  0  0  0  0  0  0  0  0  0
   13.8197   -7.3216    0.0000 N   0  0  0  0  0  0  0  0  0  0  0  0
   12.6668   -9.3129    0.0000 N   0  0  0  0  0  0  0  0  0  0  0  0
   10.3610   -5.3302    0.0000 N   0  0  0  0  0  0  0  0  0  0  0  0
   10.3610   -3.9977    0.0000 C   0  0  0  0  0  0  0  0  0  0  0  0
   11.5139   -3.3239    0.0000 C   0  0  0  0  0  0  0  0  0  0  0  0
   12.6668   -3.9977    0.0000 N   0  0  0  0  0  0  0  0  0  0  0  0
   11.5139   -1.9913    0.0000 C   0  0  0  0  0  0  0  0  0  0  0  0
   10.3610   -1.3326    0.0000 N   0  0  0  0  0  0  0  0  0  0  0  0
    9.2081   -1.9913    0.0000 C   0  0  0  0  0  0  0  0  0  0  0  0
    9.2081   -3.3239    0.0000 C   0  0  0  0  0  0  0  0  0  0  0  0
    8.0552   -3.9977    0.0000 C   0  0  0  0  0  0  0  0  0  0  0  0
    6.9173   -3.3239    0.0000 C   0  0  0  0  0  0  0  0  0  0  0  0
    6.9173   -1.9913    0.0000 C   0  0  0  0  0  0  0  0  0  0  0  0
    8.0552   -1.3326    0.0000 C   0  0  0  0  0  0  0  0  0  0  0  0
    5.7644   -3.9977    0.0000 C   0  0  0  0  0  0  0  0  0  0  0  0
    4.6115   -3.3239    0.0000 O   0  0  0  0  0  0  0  0  0  0  0  0
    5.7644   -5.3302    0.0000 N   0  0  0  0  0  0  0  0  0  0  0  0
    4.6115   -5.9890    0.0000 C   0  0  1  0  0  0  0  0  0  0  0  0
    3.4587   -5.3302    0.0000 C   0  0  0  0  0  0  0  0  0  0  0  0
    2.3058   -5.9890    0.0000 C   0  0  0  0  0  0  0  0  0  0  0  0
    1.1529   -5.3302    0.0000 C   0  0  0  0  0  0  0  0  0  0  0  0
    1.1529   -3.9977    0.0000 O   0  0  0  0  0  0  0  0  0  0  0  0
    0.0000   -5.9890    0.0000 O   0  0  0  0  0  0  0  0  0  0  0  0
    4.6115   -7.3216    0.0000 C   0  0  0  0  0  0  0  0  0  0  0  0
    3.4587   -7.9804    0.0000 O   0  0  0  0  0  0  0  0  0  0  0  0
    5.7644   -7.9804    0.0000 O   0  0  0  0  0  0  0  0  0  0  0  0
   10.3610    0.0000    0.0000 C   0  0  0  0  0  0  0  0  0  0  0  0
  1  2  1  0  0  0  0
  2  3  2  0  0  0  0
  2  7  1  0  0  0  0
  3  4  1  0  0  0  0
  3 12  1  0  0  0  0
  4  5  2  0  0  0  0
  4  9  1  0  0  0  0
  5  6  1  0  0  0  0
  6  7  2  0  0  0  0
  6  8  1  0  0  0  0
  9 10  2  0  0  0  0
 10 11  1  0  0  0  0
 11 12  2  0  0  0  0
 11 13  1  0  0  0  0
 13 14  1  0  0  0  0
 14 15  1  0  0  0  0
 14 33  1  0  0  0  0
 15 16  2  0  0  0  0
 15 20  1  0  0  0  0
 16 17  1  0  0  0  0
 17 18  2  0  0  0  0
 18 19  1  0  0  0  0
 18 21  1  0  0  0  0
 19 20  2  0  0  0  0
 21 22  2  0  0  0  0
 21 23  1  0  0  0  0
 24 23  1  6  0  0  0
 24 25  1  0  0  0  0
 24 30  1  0  0  0  0
 25 26  1  0  0  0  0
 26 27  1  0  0  0  0
 27 28  2  0  0  0  0
 27 29  1  0  0  0  0
 30 31  2  0  0  0  0
 30 32  1  0  0  0  0
M  END
>  <DSSTox_RID>
20822

>  <DSSTox_CID>
822

>  <DSSTox_Generic_SID>
20822

>  <DSSTox_FileID>
861_CPDBAS_v5d

>  <STRUCTURE_Formula>
C20H22N8O5

>  <STRUCTURE_MolecularWeight>
454.4393

>  <STRUCTURE_ChemicalType>
defined organic

>  <STRUCTURE_TestedForm_DefinedOrganic>
parent

>  <STRUCTURE_Shown>
tested chemical

>  <TestSubstance_ChemicalName>
Methotrexate

>  <TestSubstance_CASRN>
59-05-2

>  <TestSubstance_Description>
single chemical compound

>  <ChemicalNote>
stereochem

>  <STRUCTURE_ChemicalName_IUPAC>
N-[(4-{[(2,4-diaminopteridin-6-yl)methyl](methyl)amino}phenyl)carbonyl]-L-glutamic acid

>  <STRUCTURE_SMILES>
NC1=C2C(=NC(=N1)N)N=CC(=N2)CN(C3=CC=C(C=C3)C(=O)N[C@@H](CCC(=O)O)C(=O)O)C

>  <STRUCTURE_Parent_SMILES>
NC1=C2C(=NC(=N1)N)N=CC(=N2)CN(C3=CC=C(C=C3)C(=O)N[C@@H](CCC(=O)O)C(=O)O)C

>  <STRUCTURE_InChI>
InChI=1/C20H22N8O5/c1-28(9-11-8-23-17-15(24-11)16(21)26-20(22)27-17)12-4-2-10(3-5-12)18(31)25-13(19(32)33)6-7-14(29)30/h2-5,8,13H,6-7,9H2,1H3,(H,25,31)(H,29,30)(H,32,33)(H4,21,22,23,26,27)/t13-/m0/s1/f/h25,29,32H,21-22H2

>  <STRUCTURE_InChIKey>
FBOZXECLQNJBKD-SGDZJVHDDX

>  <StudyType>
Carcinogenicity

>  <Endpoint>
TD50; Tumor Target Sites

>  <Species>
rat; mouse; hamster

>  <ActivityOutcome_CPDBAS_Mutagenicity>
inactive

>  <ActivityScore_CPDBAS_Rat>
0

>  <TD50_Rat_Note>
no positive results

>  <TargetSites_Rat_Male>
no positive results

>  <TargetSites_Rat_Female>
no positive results

>  <ActivityOutcome_CPDBAS_Rat>
inactive

>  <ActivityScore_CPDBAS_Mouse>
0

>  <TD50_Mouse_Note>
no positive results

>  <TargetSites_Mouse_Male>
no positive results

>  <TargetSites_Mouse_Female>
no positive results

>  <ActivityOutcome_CPDBAS_Mouse>
inactive

>  <ActivityScore_CPDBAS_Hamster>
0

>  <TD50_Hamster_Note>
no positive results

>  <TargetSites_Hamster_Male>
no positive results

>  <TargetSites_Hamster_Female>
no positive results

>  <ActivityOutcome_CPDBAS_Hamster>
inactive

>  <ActivityOutcome_CPDBAS_SingleCellCall>
inactive

>  <ActivityOutcome_CPDBAS_MultiCellCall>
inactive

>  <ActivityOutcome_CPDBAS_MultiCellCall_Details>
multisex inactive; multispecies inactive

>  <ChemicalPage_URL>
http://potency.berkeley.edu/chempages/METHOTREXATE.html

$$$$



 17 18  0  0  0  0  0  0  0  0999 V2000
    3.9901   -4.6045    0.0000 N   0  0  0  0  0  0  0  0  0  0  0  0
    5.3227   -4.6045    0.0000 N   0  0  0  0  0  0  0  0  0  0  0  0
    5.9851   -3.4554    0.0000 C   0  0  0  0  0  0  0  0  0  0  0  0
    5.3227   -2.2983    0.0000 C   0  0  0  0  0  0  0  0  0  0  0  0
    5.9851   -1.1491    0.0000 C   0  0  0  0  0  0  0  0  0  0  0  0
    7.3178   -1.1491    0.0000 C   0  0  0  0  0  0  0  0  0  0  0  0
    7.9801   -2.2983    0.0000 C   0  0  0  0  0  0  0  0  0  0  0  0
    7.3178   -3.4554    0.0000 C   0  0  0  0  0  0  0  0  0  0  0  0
    3.3277   -3.4554    0.0000 C   0  0  0  0  0  0  0  0  0  0  0  0
    1.9950   -3.4554    0.0000 C   0  0  0  0  0  0  0  0  0  0  0  0
    1.3327   -2.2983    0.0000 C   0  0  0  0  0  0  0  0  0  0  0  0
    1.9950   -1.1491    0.0000 C   0  0  0  0  0  0  0  0  0  0  0  0
    3.3277   -1.1491    0.0000 C   0  0  0  0  0  0  0  0  0  0  0  0
    3.9901   -2.2983    0.0000 C   0  0  0  0  0  0  0  0  0  0  0  0
    1.3327    0.0000    0.0000 N   0  0  0  0  0  0  0  0  0  0  0  0
    1.3327   -4.6045    0.0000 O   0  0  0  0  0  0  0  0  0  0  0  0
    0.0000   -4.6045    0.0000 C   0  0  0  0  0  0  0  0  0  0  0  0
  1  2  2  0  0  0  0
  1  9  1  0  0  0  0
  2  3  1  0  0  0  0
  3  4  1  0  0  0  0
  3  8  2  0  0  0  0
  4  5  2  0  0  0  0
  5  6  1  0  0  0  0
  6  7  2  0  0  0  0
  7  8  1  0  0  0  0
  9 10  1  0  0  0  0
  9 14  2  0  0  0  0
 10 11  2  0  0  0  0
 10 16  1  0  0  0  0
 11 12  1  0  0  0  0
 12 13  2  0  0  0  0
 12 15  1  0  0  0  0
 13 14  1  0  0  0  0
 16 17  1  0  0  0  0
M  END
>  <DSSTox_RID>
20823

>  <DSSTox_CID>
823

>  <DSSTox_Generic_SID>
20823

>  <DSSTox_FileID>
862_CPDBAS_v5d

>  <STRUCTURE_Formula>
C13H13N3O

>  <STRUCTURE_MolecularWeight>
227.2652

>  <STRUCTURE_ChemicalType>
defined organic

>  <STRUCTURE_TestedForm_DefinedOrganic>
parent

>  <STRUCTURE_Shown>
tested chemical

>  <TestSubstance_ChemicalName>
2-Methoxy-4-aminoazobenzene

>  <TestSubstance_CASRN>
80830-39-3

>  <TestSubstance_Description>
single chemical compound

>  <STRUCTURE_ChemicalName_IUPAC>
3-(methyloxy)-4-[(Z)-phenyldiazenyl]aniline

>  <STRUCTURE_SMILES>
NC2=CC=C(C(OC)=C2)\N=N/C1=CC=CC=C1

>  <STRUCTURE_Parent_SMILES>
NC2=CC=C(C(OC)=C2)\N=N/C1=CC=CC=C1

>  <STRUCTURE_InChI>
InChI=1/C13H13N3O/c1-17-13-9-10(14)7-8-12(13)16-15-11-5-3-2-4-6-11/h2-9H,14H2,1H3/b16-15-

>  <STRUCTURE_InChIKey>
SPVAQUCGELAFGL-NXVVXOECBW

>  <StudyType>
Carcinogenicity

>  <Endpoint>
TD50; Tumor Target Sites

>  <Species>
mouse

>  <ActivityScore_CPDBAS_Mouse>
0

>  <TD50_Mouse_Note>
no positive results

>  <TargetSites_Mouse_Male>
no positive results

>  <TargetSites_Mouse_Female>
no positive results

>  <ActivityOutcome_CPDBAS_Mouse>
inactive

>  <ActivityOutcome_CPDBAS_SingleCellCall>
inactive

>  <ActivityOutcome_CPDBAS_MultiCellCall>
inactive

>  <ActivityOutcome_CPDBAS_MultiCellCall_Details>
multisex inactive

>  <ChemicalPage_URL>
http://potency.berkeley.edu/chempages/2-METHOXY-4-AMINOAZOBENZENE.html

$$$$



 17 18  0  0  0  0  0  0  0  0999 V2000
    0.0000    0.0000    0.0000 N   0  0  0  0  0  0  0  0  0  0  0  0
    1.1517   -0.6634    0.0000 C   0  0  0  0  0  0  0  0  0  0  0  0
    2.3034    0.0000    0.0000 C   0  0  0  0  0  0  0  0  0  0  0  0
    3.4552   -0.6634    0.0000 C   0  0  0  0  0  0  0  0  0  0  0  0
    3.4552   -1.9902    0.0000 C   0  0  0  0  0  0  0  0  0  0  0  0
    2.3034   -2.6536    0.0000 C   0  0  0  0  0  0  0  0  0  0  0  0
    1.1517   -1.9902    0.0000 C   0  0  0  0  0  0  0  0  0  0  0  0
    0.0000   -2.6536    0.0000 O   0  0  0  0  0  0  0  0  0  0  0  0
    0.0000   -3.9896    0.0000 C   0  0  0  0  0  0  0  0  0  0  0  0
    4.6069   -2.6536    0.0000 N   0  0  0  0  0  0  0  0  0  0  0  0
    5.7586   -1.9902    0.0000 N   0  0  0  0  0  0  0  0  0  0  0  0
    6.9103   -2.6536    0.0000 C   0  0  0  0  0  0  0  0  0  0  0  0
    8.0620   -1.9902    0.0000 C   0  0  0  0  0  0  0  0  0  0  0  0
    9.2137   -2.6536    0.0000 C   0  0  0  0  0  0  0  0  0  0  0  0
    9.2137   -3.9896    0.0000 C   0  0  0  0  0  0  0  0  0  0  0  0
    8.0620   -4.6529    0.0000 C   0  0  0  0  0  0  0  0  0  0  0  0
    6.9103   -3.9896    0.0000 C   0  0  0  0  0  0  0  0  0  0  0  0
  1  2  1  0  0  0  0
  2  3  2  0  0  0  0
  2  7  1  0  0  0  0
  3  4  1  0  0  0  0
  4  5  2  0  0  0  0
  5  6  1  0  0  0  0
  5 10  1  0  0  0  0
  6  7  2  0  0  0  0
  7  8  1  0  0  0  0
  8  9  1  0  0  0  0
 10 11  2  0  0  0  0
 11 12  1  0  0  0  0
 12 13  2  0  0  0  0
 12 17  1  0  0  0  0
 13 14  1  0  0  0  0
 14 15  2  0  0  0  0
 15 16  1  0  0  0  0
 16 17  2  0  0  0  0
M  END
>  <DSSTox_RID>
20824

>  <DSSTox_CID>
824

>  <DSSTox_Generic_SID>
20824

>  <DSSTox_FileID>
863_CPDBAS_v5d

>  <STRUCTURE_Formula>
C13H13N3O

>  <STRUCTURE_MolecularWeight>
227.2652

>  <STRUCTURE_ChemicalType>
defined organic

>  <STRUCTURE_TestedForm_DefinedOrganic>
parent

>  <STRUCTURE_Shown>
tested chemical

>  <TestSubstance_ChemicalName>
3-Methoxy-4-aminoazobenzene

>  <TestSubstance_CASRN>
3544-23-8

>  <TestSubstance_Description>
single chemical compound

>  <STRUCTURE_ChemicalName_IUPAC>
2-(methyloxy)-4-[(E)-phenyldiazenyl]aniline

>  <STRUCTURE_SMILES>
NC1=CC=C(C=C1OC)/N=N/C2=CC=CC=C2

>  <STRUCTURE_Parent_SMILES>
NC1=CC=C(C=C1OC)/N=N/C2=CC=CC=C2

>  <STRUCTURE_InChI>
InChI=1/C13H13N3O/c1-17-13-9-11(7-8-12(13)14)16-15-10-5-3-2-4-6-10/h2-9H,14H2,1H3/b16-15+

>  <STRUCTURE_InChIKey>
BQDAFHDHPLPCLC-FOCLMDBBBB

>  <StudyType>
Carcinogenicity

>  <Endpoint>
TD50; Tumor Target Sites

>  <Species>
mouse

>  <ActivityOutcome_CPDBAS_Mutagenicity>
active

>  <TD50_Mouse_mg>
60.2

>  <TD50_Mouse_mmol>
0.265

>  <ActivityScore_CPDBAS_Mouse>
35

>  <TargetSites_Mouse_Male>
no positive results

>  <TargetSites_Mouse_Female>
liver

>  <ActivityOutcome_CPDBAS_Mouse>
active

>  <ActivityOutcome_CPDBAS_SingleCellCall>
active

>  <ChemicalPage_URL>
http://potency.berkeley.edu/chempages/3-METHOXY-4-AMINOAZOBENZENE.html

$$$$



 16 18  0  0  0  0  0  0  0  0999 V2000
    1.1500    0.0000    0.0000 N   0  0  0  0  0  0  0  0  0  0  0  0
    2.2999   -0.6644    0.0000 C   0  0  0  0  0  0  0  0  0  0  0  0
    2.2999   -1.9933    0.0000 C   0  0  0  0  0  0  0  0  0  0  0  0
    3.4584   -2.6577    0.0000 C   0  0  0  0  0  0  0  0  0  0  0  0
    4.6084   -1.9933    0.0000 C   0  0  0  0  0  0  0  0  0  0  0  0
    5.8690   -2.4021    0.0000 C   0  0  0  0  0  0  0  0  0  0  0  0
    6.6527   -1.3288    0.0000 C   0  0  0  0  0  0  0  0  0  0  0  0
    7.9730   -1.4651    0.0000 C   0  0  0  0  0  0  0  0  0  0  0  0
    8.5182   -2.6832    0.0000 C   0  0  0  0  0  0  0  0  0  0  0  0
    7.7345   -3.7565    0.0000 C   0  0  0  0  0  0  0  0  0  0  0  0
    6.4142   -3.6202    0.0000 C   0  0  0  0  0  0  0  0  0  0  0  0
    5.8690   -0.2470    0.0000 O   0  0  0  0  0  0  0  0  0  0  0  0
    4.6084   -0.6644    0.0000 C   0  0  0  0  0  0  0  0  0  0  0  0
    3.4584    0.0000    0.0000 C   0  0  0  0  0  0  0  0  0  0  0  0
    1.1500   -2.6577    0.0000 O   0  0  0  0  0  0  0  0  0  0  0  0
    0.0000   -1.9933    0.0000 C   0  0  0  0  0  0  0  0  0  0  0  0
  1  2  1  0  0  0  0
  2  3  2  0  0  0  0
  2 14  1  0  0  0  0
  3  4  1  0  0  0  0
  3 15  1  0  0  0  0
  4  5  2  0  0  0  0
  5  6  1  0  0  0  0
  5 13  1  0  0  0  0
  6  7  2  0  0  0  0
  6 11  1  0  0  0  0
  7  8  1  0  0  0  0
  7 12  1  0  0  0  0
  8  9  2  0  0  0  0
  9 10  1  0  0  0  0
 10 11  2  0  0  0  0
 12 13  1  0  0  0  0
 13 14  2  0  0  0  0
 15 16  1  0  0  0  0
M  END
>  <DSSTox_RID>
20825

>  <DSSTox_CID>
825

>  <DSSTox_Generic_SID>
20825

>  <DSSTox_FileID>
864_CPDBAS_v5d

>  <STRUCTURE_Formula>
C13H11NO2

>  <STRUCTURE_MolecularWeight>
213.2354

>  <STRUCTURE_ChemicalType>
defined organic

>  <STRUCTURE_TestedForm_DefinedOrganic>
parent

>  <STRUCTURE_Shown>
tested chemical

>  <TestSubstance_ChemicalName>
2-Methoxy-3-aminodibenzofuran

>  <TestSubstance_CASRN>
5834-17-3

>  <TestSubstance_Description>
single chemical compound

>  <STRUCTURE_ChemicalName_IUPAC>
2-(methyloxy)dibenzo[b,d]furan-3-amine

>  <STRUCTURE_SMILES>
NC1=C(C=C2C3=C(C=CC=C3)OC2=C1)OC

>  <STRUCTURE_Parent_SMILES>
NC1=C(C=C2C3=C(C=CC=C3)OC2=C1)OC

>  <STRUCTURE_InChI>
InChI=1/C13H11NO2/c1-15-13-6-9-8-4-2-3-5-11(8)16-12(9)7-10(13)14/h2-7H,14H2,1H3

>  <STRUCTURE_InChIKey>
SGQVWNYSHWQNOS-UHFFFAOYAP

>  <StudyType>
Carcinogenicity

>  <Endpoint>
TD50; Tumor Target Sites

>  <Species>
rat

>  <TD50_Rat_mg>
29

>  <TD50_Rat_mmol>
0.136

>  <ActivityScore_CPDBAS_Rat>
35

>  <TD50_Rat_Note>
TD50 is harmonic mean of more than one positive test; harmonic mean of TD50 includes a value for upper 99% confidence limit from study with 100% tumor incidence but no lifetable

>  <TargetSites_Rat_Male>
ear Zymbals gland; kidney; urinary bladder

>  <TargetSites_Rat_Female>
ear Zymbals gland; mammary gland; urinary bladder

>  <ActivityOutcome_CPDBAS_Rat>
active

>  <ActivityOutcome_CPDBAS_SingleCellCall>
active

>  <ActivityOutcome_CPDBAS_MultiCellCall>
active

>  <ActivityOutcome_CPDBAS_MultiCellCall_Details>
multisite active; multisex active

>  <Note_CPDBAS>
TD50_Rat_Note modified v5a

>  <ChemicalPage_URL>
http://potency.berkeley.edu/chempages/2-METHOXY-3-AMINODIBENZOFURAN.html

$$$$



 10 10  0  0  0  0  0  0  0  0999 V2000
    3.9887    0.0000    0.0000 O   0  0  0  0  0  0  0  0  0  0  0  0
    3.3239   -1.1541    0.0000 C   0  0  0  0  0  0  0  0  0  0  0  0
    3.9887   -2.3081    0.0000 C   0  0  0  0  0  0  0  0  0  0  0  0
    3.3239   -3.4568    0.0000 C   0  0  0  0  0  0  0  0  0  0  0  0
    1.9943   -3.4568    0.0000 C   0  0  0  0  0  0  0  0  0  0  0  0
    1.3296   -2.3081    0.0000 C   0  0  0  0  0  0  0  0  0  0  0  0
    1.9943   -1.1541    0.0000 C   0  0  0  0  0  0  0  0  0  0  0  0
    1.3296    0.0000    0.0000 O   0  0  0  0  0  0  0  0  0  0  0  0
    0.0000    0.0000    0.0000 C   0  0  0  0  0  0  0  0  0  0  0  0
    5.3182   -2.3081    0.0000 O   0  0  0  0  0  0  0  0  0  0  0  0
  1  2  1  0  0  0  0
  2  3  2  0  0  0  0
  2  7  1  0  0  0  0
  3  4  1  0  0  0  0
  3 10  1  0  0  0  0
  4  5  2  0  0  0  0
  5  6  1  0  0  0  0
  6  7  2  0  0  0  0
  7  8  1  0  0  0  0
  8  9  1  0  0  0  0
M  END
>  <DSSTox_RID>
20826

>  <DSSTox_CID>
826

>  <DSSTox_Generic_SID>
20826

>  <DSSTox_FileID>
865_CPDBAS_v5d

>  <STRUCTURE_Formula>
C7H8O3

>  <STRUCTURE_MolecularWeight>
140.1384

>  <STRUCTURE_ChemicalType>
defined organic

>  <STRUCTURE_TestedForm_DefinedOrganic>
parent

>  <STRUCTURE_Shown>
tested chemical

>  <TestSubstance_ChemicalName>
3-Methoxycatechol

>  <TestSubstance_CASRN>
934-00-9

>  <TestSubstance_Description>
single chemical compound

>  <STRUCTURE_ChemicalName_IUPAC>
3-(methyloxy)benzene-1,2-diol

>  <STRUCTURE_SMILES>
OC1=C(C=CC=C1OC)O

>  <STRUCTURE_Parent_SMILES>
OC1=C(C=CC=C1OC)O

>  <STRUCTURE_InChI>
InChI=1/C7H8O3/c1-10-6-4-2-3-5(8)7(6)9/h2-4,8-9H,1H3

>  <STRUCTURE_InChIKey>
LPYUENQFPVNPHY-UHFFFAOYAA

>  <StudyType>
Carcinogenicity

>  <Endpoint>
TD50; Tumor Target Sites

>  <Species>
rat

>  <TD50_Rat_mg>
48.7

>  <TD50_Rat_mmol>
0.348

>  <ActivityScore_CPDBAS_Rat>
30

>  <TargetSites_Rat_Male>
stomach

>  <ActivityOutcome_CPDBAS_Rat>
active

>  <ActivityOutcome_CPDBAS_SingleCellCall>
active

>  <ChemicalPage_URL>
http://potency.berkeley.edu/chempages/3-METHOXYCATECHOL.html

$$$$



 21 22  0  0  0  0  0  0  0  0999 V2000
    4.4361   -1.3366    0.0000 Cl  0  0  0  0  0  0  0  0  0  0  0  0
    5.7611   -1.3366    0.0000 C   0  0  0  0  0  0  0  0  0  0  0  0
    5.7611   -2.6616    0.0000 C   0  0  0  0  0  0  0  0  0  0  0  0
    6.9133   -3.3299    0.0000 C   0  0  0  0  0  0  0  0  0  0  0  0
    8.0656   -2.6616    0.0000 C   0  0  0  0  0  0  0  0  0  0  0  0
    9.2178   -3.3299    0.0000 C   0  0  0  0  0  0  0  0  0  0  0  0
    9.2178   -4.6550    0.0000 C   0  0  0  0  0  0  0  0  0  0  0  0
    8.0656   -5.3233    0.0000 C   0  0  0  0  0  0  0  0  0  0  0  0
    6.9133   -4.6550    0.0000 C   0  0  0  0  0  0  0  0  0  0  0  0
   10.3700   -5.3233    0.0000 O   0  0  0  0  0  0  0  0  0  0  0  0
   11.5222   -4.6550    0.0000 C   0  0  0  0  0  0  0  0  0  0  0  0
    4.6089   -3.3299    0.0000 C   0  0  0  0  0  0  0  0  0  0  0  0
    4.6089   -4.6550    0.0000 C   0  0  0  0  0  0  0  0  0  0  0  0
    3.4567   -5.3233    0.0000 C   0  0  0  0  0  0  0  0  0  0  0  0
    2.3044   -4.6550    0.0000 C   0  0  0  0  0  0  0  0  0  0  0  0
    2.3044   -3.3299    0.0000 C   0  0  0  0  0  0  0  0  0  0  0  0
    3.4567   -2.6616    0.0000 C   0  0  0  0  0  0  0  0  0  0  0  0
    1.1522   -5.3233    0.0000 O   0  0  0  0  0  0  0  0  0  0  0  0
    0.0000   -4.6550    0.0000 C   0  0  0  0  0  0  0  0  0  0  0  0
    5.7611    0.0000    0.0000 Cl  0  0  0  0  0  0  0  0  0  0  0  0
    7.0862   -1.3366    0.0000 Cl  0  0  0  0  0  0  0  0  0  0  0  0
  1  2  1  0  0  0  0
  2  3  1  0  0  0  0
  2 20  1  0  0  0  0
  2 21  1  0  0  0  0
  3  4  1  0  0  0  0
  3 12  1  0  0  0  0
  4  5  2  0  0  0  0
  4  9  1  0  0  0  0
  5  6  1  0  0  0  0
  6  7  2  0  0  0  0
  7  8  1  0  0  0  0
  7 10  1  0  0  0  0
  8  9  2  0  0  0  0
 10 11  1  0  0  0  0
 12 13  2  0  0  0  0
 12 17  1  0  0  0  0
 13 14  1  0  0  0  0
 14 15  2  0  0  0  0
 15 16  1  0  0  0  0
 15 18  1  0  0  0  0
 16 17  2  0  0  0  0
 18 19  1  0  0  0  0
M  END
>  <DSSTox_RID>
20827

>  <DSSTox_CID>
827

>  <DSSTox_Generic_SID>
20827

>  <DSSTox_FileID>
866_CPDBAS_v5d

>  <STRUCTURE_Formula>
C16H15Cl3O2

>  <STRUCTURE_MolecularWeight>
345.6481

>  <STRUCTURE_ChemicalType>
defined organic

>  <STRUCTURE_TestedForm_DefinedOrganic>
parent

>  <STRUCTURE_Shown>
tested chemical

>  <TestSubstance_ChemicalName>
Methoxychlor

>  <TestSubstance_CASRN>
72-43-5

>  <TestSubstance_Description>
single chemical compound

>  <STRUCTURE_ChemicalName_IUPAC>
1,1'-(2,2,2-trichloroethane-1,1-diyl)bis[4-(methyloxy)benzene]

>  <STRUCTURE_SMILES>
ClC(C(C1=CC=C(C=C1)OC)C2=CC=C(C=C2)OC)(Cl)Cl

>  <STRUCTURE_Parent_SMILES>
ClC(C(C1=CC=C(C=C1)OC)C2=CC=C(C=C2)OC)(Cl)Cl

>  <STRUCTURE_InChI>
InChI=1/C16H15Cl3O2/c1-20-13-7-3-11(4-8-13)15(16(17,18)19)12-5-9-14(21-2)10-6-12/h3-10,15H,1-2H3

>  <STRUCTURE_InChIKey>
IAKOZHOLGAGEJT-UHFFFAOYAO

>  <StudyType>
Carcinogenicity

>  <Endpoint>
TD50; Tumor Target Sites

>  <Species>
rat; mouse

>  <ActivityOutcome_CPDBAS_Mutagenicity>
inactive

>  <ActivityScore_CPDBAS_Rat>
0

>  <TD50_Rat_Note>
no positive results

>  <TargetSites_Rat_Male>
no positive results

>  <TargetSites_Rat_Female>
no positive results

>  <ActivityOutcome_CPDBAS_Rat>
inactive

>  <ActivityScore_CPDBAS_Mouse>
0

>  <TD50_Mouse_Note>
no positive results

>  <TargetSites_Mouse_Male>
no positive results

>  <TargetSites_Mouse_Female>
no positive results

>  <ActivityOutcome_CPDBAS_Mouse>
inactive

>  <ActivityOutcome_CPDBAS_SingleCellCall>
inactive

>  <ActivityOutcome_CPDBAS_MultiCellCall>
inactive

>  <ActivityOutcome_CPDBAS_MultiCellCall_Details>
multisex inactive; multispecies inactive

>  <NTP_TechnicalReport>
TR 35

>  <ChemicalPage_URL>
http://potency.berkeley.edu/chempages/METHOXYCHLOR.html

$$$$



  9  9  0  0  0  0  0  0  0  0999 V2000
    0.0000    0.0000    0.0000 C   0  0  0  0  0  0  0  0  0  0  0  0
    0.6638   -1.1542    0.0000 O   0  0  0  0  0  0  0  0  0  0  0  0
    1.9915   -1.1542    0.0000 C   0  0  0  0  0  0  0  0  0  0  0  0
    2.6554    0.0000    0.0000 C   0  0  0  0  0  0  0  0  0  0  0  0
    3.9890    0.0000    0.0000 C   0  0  0  0  0  0  0  0  0  0  0  0
    4.6529   -1.1542    0.0000 C   0  0  0  0  0  0  0  0  0  0  0  0
    3.9890   -2.3025    0.0000 C   0  0  0  0  0  0  0  0  0  0  0  0
    2.6554   -2.3025    0.0000 C   0  0  0  0  0  0  0  0  0  0  0  0
    5.9806   -1.1542    0.0000 O   0  0  0  0  0  0  0  0  0  0  0  0
  1  2  1  0  0  0  0
  2  3  1  0  0  0  0
  3  4  2  0  0  0  0
  3  8  1  0  0  0  0
  4  5  1  0  0  0  0
  5  6  2  0  0  0  0
  6  7  1  0  0  0  0
  6  9  1  0  0  0  0
  7  8  2  0  0  0  0
M  END
>  <DSSTox_RID>
20828

>  <DSSTox_CID>
828

>  <DSSTox_Generic_SID>
20828

>  <DSSTox_FileID>
867_CPDBAS_v5d

>  <STRUCTURE_Formula>
C7H8O2

>  <STRUCTURE_MolecularWeight>
124.1372

>  <STRUCTURE_ChemicalType>
defined organic

>  <STRUCTURE_TestedForm_DefinedOrganic>
parent

>  <STRUCTURE_Shown>
tested chemical

>  <TestSubstance_ChemicalName>
4-Methoxyphenol

>  <TestSubstance_CASRN>
150-76-5

>  <TestSubstance_Description>
single chemical compound

>  <STRUCTURE_ChemicalName_IUPAC>
4-methoxyphenol

>  <STRUCTURE_SMILES>
COC1=CC=C(C=C1)O

>  <STRUCTURE_Parent_SMILES>
COC1=CC=C(C=C1)O

>  <STRUCTURE_InChI>
InChI=1/C7H8O2/c1-9-7-4-2-6(8)3-5-7/h2-5,8H,1H3

>  <STRUCTURE_InChIKey>
NWVVVBRKAWDGAB-UHFFFAOYAR

>  <StudyType>
Carcinogenicity

>  <Endpoint>
TD50; Tumor Target Sites

>  <Species>
rat

>  <ActivityOutcome_CPDBAS_Mutagenicity>
inactive

>  <TD50_Rat_mg>
658

>  <TD50_Rat_mmol>
5.3

>  <ActivityScore_CPDBAS_Rat>
18

>  <TD50_Rat_Note>
TD50 is harmonic mean of more than one positive test

>  <TargetSites_Rat_Male>
stomach

>  <TargetSites_Rat_Female>
stomach

>  <ActivityOutcome_CPDBAS_Rat>
active

>  <ActivityOutcome_CPDBAS_SingleCellCall>
active

>  <ActivityOutcome_CPDBAS_MultiCellCall>
active

>  <ActivityOutcome_CPDBAS_MultiCellCall_Details>
multisex active

>  <ChemicalPage_URL>
http://potency.berkeley.edu/chempages/4-METHOXYPHENOL.html

$$$$



 12 12  0  0  0  0  0  0  0  0999 V2000
    0.0000   -2.3048    0.0000 C   0  0  0  0  0  0  0  0  0  0  0  0
    0.6645   -1.1494    0.0000 C   0  0  0  0  0  0  0  0  0  0  0  0
    1.9935   -1.1494    0.0000 C   0  0  0  0  0  0  0  0  0  0  0  0
    2.6580   -2.3048    0.0000 C   0  0  0  0  0  0  0  0  0  0  0  0
    3.9929   -2.3048    0.0000 C   0  0  3  0  0  0  0  0  0  0  0  0
    4.6574   -3.4542    0.0000 O   0  0  0  0  0  0  0  0  0  0  0  0
    5.9864   -3.4542    0.0000 C   0  0  0  0  0  0  0  0  0  0  0  0
    4.6574   -1.1494    0.0000 C   0  0  0  0  0  0  0  0  0  0  0  0
    3.9929    0.0000    0.0000 O   0  0  0  0  0  0  0  0  0  0  0  0
    5.9864   -1.1494    0.0000 O   0  0  0  0  0  0  0  0  0  0  0  0
    0.6645   -3.4542    0.0000 C   0  0  0  0  0  0  0  0  0  0  0  0
    1.9935   -3.4542    0.0000 C   0  0  0  0  0  0  0  0  0  0  0  0
  1  2  2  0  0  0  0
  1 11  1  0  0  0  0
  2  3  1  0  0  0  0
  3  4  2  0  0  0  0
  4  5  1  0  0  0  0
  4 12  1  0  0  0  0
  5  6  1  0  0  0  0
  5  8  1  0  0  0  0
  6  7  1  0  0  0  0
  8  9  2  0  0  0  0
  8 10  1  0  0  0  0
 11 12  2  0  0  0  0
M  END
>  <DSSTox_RID>
20829

>  <DSSTox_CID>
829

>  <DSSTox_Generic_SID>
20829

>  <DSSTox_FileID>
868_CPDBAS_v5d

>  <STRUCTURE_Formula>
C9H10O3

>  <STRUCTURE_MolecularWeight>
166.1762

>  <STRUCTURE_ChemicalType>
defined organic

>  <STRUCTURE_TestedForm_DefinedOrganic>
parent

>  <STRUCTURE_Shown>
tested chemical

>  <TestSubstance_ChemicalName>
Methoxyphenylacetic acid

>  <TestSubstance_CASRN>
1701-77-5

>  <TestSubstance_Description>
single chemical compound

>  <STRUCTURE_ChemicalName_IUPAC>
(methyloxy)(phenyl)acetic acid

>  <STRUCTURE_SMILES>
C1=CC=C(C(OC)C(=O)O)C=C1

>  <STRUCTURE_Parent_SMILES>
C1=CC=C(C(OC)C(=O)O)C=C1

>  <STRUCTURE_InChI>
InChI=1/C9H10O3/c1-12-8(9(10)11)7-5-3-2-4-6-7/h2-6,8H,1H3,(H,10,11)/f/h10H

>  <STRUCTURE_InChIKey>
DIWVBIXQCNRCFE-KZFATGLACO

>  <StudyType>
Carcinogenicity

>  <Endpoint>
TD50; Tumor Target Sites

>  <Species>
mouse

>  <ActivityScore_CPDBAS_Mouse>
0

>  <TD50_Mouse_Note>
no positive results

>  <TargetSites_Mouse_Male>
no positive results

>  <TargetSites_Mouse_Female>
no positive results

>  <ActivityOutcome_CPDBAS_Mouse>
inactive

>  <ActivityOutcome_CPDBAS_SingleCellCall>
inactive

>  <ActivityOutcome_CPDBAS_MultiCellCall>
inactive

>  <ActivityOutcome_CPDBAS_MultiCellCall_Details>
multisex inactive

>  <ChemicalPage_URL>
http://potency.berkeley.edu/chempages/METHOXYPHENYLACETIC%20ACID.html

$$$$



 16 18  0  0  0  0  0  0  0  0999 V2000
    2.0454    0.0000    0.0000 C   0  0  0  0  0  0  0  0  0  0  0  0
    3.2008   -0.6636    0.0000 O   0  0  0  0  0  0  0  0  0  0  0  0
    3.2008   -1.9907    0.0000 C   0  0  0  0  0  0  0  0  0  0  0  0
    4.3484   -2.6543    0.0000 C   0  0  0  0  0  0  0  0  0  0  0  0
    4.3484   -3.9893    0.0000 C   0  0  0  0  0  0  0  0  0  0  0  0
    3.2008   -4.6528    0.0000 C   0  0  0  0  0  0  0  0  0  0  0  0
    2.0454   -3.9893    0.0000 C   0  0  0  0  0  0  0  0  0  0  0  0
    2.0454   -2.6543    0.0000 C   0  0  0  0  0  0  0  0  0  0  0  0
    0.7807   -2.2483    0.0000 O   0  0  0  0  0  0  0  0  0  0  0  0
    0.0000   -3.3257    0.0000 C   0  0  0  0  0  0  0  0  0  0  0  0
    0.7807   -4.3952    0.0000 C   0  0  0  0  0  0  0  0  0  0  0  0
    5.5038   -4.6528    0.0000 C   0  0  0  0  0  0  0  0  0  0  0  0
    6.6514   -3.9893    0.0000 C   0  0  0  0  0  0  0  0  0  0  0  0
    6.6514   -2.6543    0.0000 C   0  0  0  0  0  0  0  0  0  0  0  0
    7.8068   -1.9907    0.0000 O   0  0  0  0  0  0  0  0  0  0  0  0
    5.5038   -1.9907    0.0000 O   0  0  0  0  0  0  0  0  0  0  0  0
  1  2  1  0  0  0  0
  2  3  1  0  0  0  0
  3  4  2  0  0  0  0
  3  8  1  0  0  0  0
  4  5  1  0  0  0  0
  4 16  1  0  0  0  0
  5  6  2  0  0  0  0
  5 12  1  0  0  0  0
  6  7  1  0  0  0  0
  7  8  2  0  0  0  0
  7 11  1  0  0  0  0
  8  9  1  0  0  0  0
  9 10  1  0  0  0  0
 10 11  2  0  0  0  0
 12 13  2  0  0  0  0
 13 14  1  0  0  0  0
 14 15  2  0  0  0  0
 14 16  1  0  0  0  0
M  END
>  <DSSTox_RID>
20830

>  <DSSTox_CID>
830

>  <DSSTox_Generic_SID>
20830

>  <DSSTox_FileID>
869_CPDBAS_v5d

>  <STRUCTURE_Formula>
C12H8O4

>  <STRUCTURE_MolecularWeight>
216.1895

>  <STRUCTURE_ChemicalType>
defined organic

>  <STRUCTURE_TestedForm_DefinedOrganic>
parent

>  <STRUCTURE_Shown>
tested chemical

>  <TestSubstance_ChemicalName>
8-Methoxypsoralen

>  <TestSubstance_CASRN>
298-81-7

>  <TestSubstance_Description>
single chemical compound

>  <STRUCTURE_ChemicalName_IUPAC>
9-(methyloxy)-7H-furo[3,2-g]chromen-7-one

>  <STRUCTURE_SMILES>
COC1=C2C(=CC3=C1OC=C3)C=CC(=O)O2

>  <STRUCTURE_Parent_SMILES>
COC1=C2C(=CC3=C1OC=C3)C=CC(=O)O2

>  <STRUCTURE_InChI>
InChI=1/C12H8O4/c1-14-12-10-8(4-5-15-10)6-7-2-3-9(13)16-11(7)12/h2-6H,1H3

>  <STRUCTURE_InChIKey>
QXKHYNVANLEOEG-UHFFFAOYAV

>  <StudyType>
Carcinogenicity

>  <Endpoint>
TD50; Tumor Target Sites

>  <Species>
rat; mouse

>  <ActivityOutcome_CPDBAS_Mutagenicity>
active

>  <TD50_Rat_mg>
32.4

>  <TD50_Rat_mmol>
0.15

>  <ActivityScore_CPDBAS_Rat>
34

>  <TargetSites_Rat_Male>
ear Zymbals gland; kidney

>  <TargetSites_Rat_Female>
no positive results

>  <ActivityOutcome_CPDBAS_Rat>
active

>  <ActivityScore_CPDBAS_Mouse>
0

>  <TD50_Mouse_Note>
no positive results

>  <TargetSites_Mouse_Male>
no positive results

>  <TargetSites_Mouse_Female>
no positive results

>  <ActivityOutcome_CPDBAS_Mouse>
inactive

>  <ActivityOutcome_CPDBAS_SingleCellCall>
active

>  <ActivityOutcome_CPDBAS_MultiCellCall>
active

>  <ActivityOutcome_CPDBAS_MultiCellCall_Details>
multisite active

>  <NTP_TechnicalReport>
TR 359

>  <ChemicalPage_URL>
http://potency.berkeley.edu/chempages/8-METHOXYPSORALEN.html

$$$$



  6  5  0  0  0  0  0  0  0  0999 V2000
    1.3295    0.0000    0.0000 C   0  0  0  0  0  0  0  0  0  0  0  0
    0.0000    0.0000    0.0000 C   0  0  0  0  0  0  0  0  0  0  0  0
    3.3258   -1.1498    0.0000 N   0  3  0  0  0  0  0  0  0  0  0  0
    1.9963   -1.1498    0.0000 N   0  0  0  0  0  0  0  0  0  0  0  0
    3.9925    0.0000    0.0000 O   0  5  0  0  0  0  0  0  0  0  0  0
    3.9925   -2.3037    0.0000 C   0  0  0  0  0  0  0  0  0  0  0  0
  1  2  1  0  0  0  0
  1  4  1  0  0  0  0
  3  4  2  0  0  0  0
  3  5  1  0  0  0  0
  3  6  1  0  0  0  0
M  END
>  <DSSTox_RID>
20831

>  <DSSTox_CID>
831

>  <DSSTox_Generic_SID>
20831

>  <DSSTox_FileID>
870_CPDBAS_v5d

>  <STRUCTURE_Formula>
C3H8N2O

>  <STRUCTURE_MolecularWeight>
88.109

>  <STRUCTURE_ChemicalType>
defined organic

>  <STRUCTURE_TestedForm_DefinedOrganic>
parent

>  <STRUCTURE_Shown>
tested chemical

>  <TestSubstance_ChemicalName>
Z-Methyl-O,N,N-azoxyethane

>  <TestSubstance_CASRN>
57497-34-4

>  <TestSubstance_Description>
single chemical compound

>  <ChemicalNote>
stereochem

>  <STRUCTURE_ChemicalName_IUPAC>
[(Z)-methyl-ONN-azoxy]ethane

>  <STRUCTURE_SMILES>
[O-]\[N+](C)=N/CC

>  <STRUCTURE_Parent_SMILES>
[O-]\[N+](C)=N/CC

>  <STRUCTURE_InChI>
InChI=1/C3H8N2O/c1-3-4-5(2)6/h3H2,1-2H3/b5-4-

>  <STRUCTURE_InChIKey>
JPBFRFFNPXMVOJ-PLNGDYQABI

>  <StudyType>
Carcinogenicity

>  <Endpoint>
TD50; Tumor Target Sites

>  <Species>
rat

>  <TD50_Rat_mg>
11.5

>  <TD50_Rat_mmol>
0.131

>  <ActivityScore_CPDBAS_Rat>
35

>  <TargetSites_Rat_Male>
kidney; liver

>  <ActivityOutcome_CPDBAS_Rat>
active

>  <ActivityOutcome_CPDBAS_SingleCellCall>
active

>  <ActivityOutcome_CPDBAS_MultiCellCall>
active

>  <ActivityOutcome_CPDBAS_MultiCellCall_Details>
multisite active

>  <ChemicalPage_URL>
http://potency.berkeley.edu/chempages/Z-METHYL-O,N,N-AZOXYETHANE.html

$$$$



  2  1  0  0  0  0  0  0  0  0999 V2000
    0.0000    0.0000    0.0000 C   0  0  0  0  0  0  0  0  0  0  0  0
    1.3300    0.0000    0.0000 Br  0  0  0  0  0  0  0  0  0  0  0  0
  1  2  1  0  0  0  0
M  END
>  <DSSTox_RID>
20832

>  <DSSTox_CID>
832

>  <DSSTox_Generic_SID>
20832

>  <DSSTox_FileID>
871_CPDBAS_v5d

>  <STRUCTURE_Formula>
CH3Br

>  <STRUCTURE_MolecularWeight>
94.9385

>  <STRUCTURE_ChemicalType>
defined organic

>  <STRUCTURE_TestedForm_DefinedOrganic>
parent

>  <STRUCTURE_Shown>
tested chemical

>  <TestSubstance_ChemicalName>
Methyl bromide

>  <TestSubstance_CASRN>
74-83-9

>  <TestSubstance_Description>
single chemical compound

>  <STRUCTURE_ChemicalName_IUPAC>
bromomethane

>  <STRUCTURE_SMILES>
CBr

>  <STRUCTURE_Parent_SMILES>
CBr

>  <STRUCTURE_InChI>
InChI=1/CH3Br/c1-2/h1H3

>  <STRUCTURE_InChIKey>
GZUXJHMPEANEGY-UHFFFAOYAV

>  <StudyType>
Carcinogenicity

>  <Endpoint>
TD50; Tumor Target Sites

>  <Species>
rat; mouse

>  <ActivityOutcome_CPDBAS_Mutagenicity>
active

>  <ActivityScore_CPDBAS_Rat>
0

>  <TD50_Rat_Note>
no positive results

>  <TargetSites_Rat_Male>
no positive results

>  <TargetSites_Rat_Female>
no positive results

>  <ActivityOutcome_CPDBAS_Rat>
inactive

>  <ActivityScore_CPDBAS_Mouse>
0

>  <TD50_Mouse_Note>
no positive results

>  <TargetSites_Mouse_Male>
no positive results

>  <TargetSites_Mouse_Female>
no positive results

>  <ActivityOutcome_CPDBAS_Mouse>
inactive

>  <ActivityOutcome_CPDBAS_SingleCellCall>
inactive

>  <ActivityOutcome_CPDBAS_MultiCellCall>
inactive

>  <ActivityOutcome_CPDBAS_MultiCellCall_Details>
multisex inactive; multispecies inactive

>  <NTP_TechnicalReport>
TR 385; additional results included in CPDB

>  <ChemicalPage_URL>
http://potency.berkeley.edu/chempages/METHYL%20BROMIDE.html

$$$$



  6  5  0  0  0  0  0  0  0  0999 V2000
    1.8169   -2.3040    0.0000 C   0  0  0  0  0  0  0  0  0  0  0  0
    1.1503   -1.1537    0.0000 C   0  0  0  0  0  0  0  0  0  0  0  0
    2.3040   -0.4870    0.0000 O   0  0  0  0  0  0  0  0  0  0  0  0
    3.4542   -1.1537    0.0000 C   0  0  0  0  0  0  0  0  0  0  0  0
    0.0000   -1.8169    0.0000 C   0  0  0  0  0  0  0  0  0  0  0  0
    0.4870    0.0000    0.0000 C   0  0  0  0  0  0  0  0  0  0  0  0
  1  2  1  0  0  0  0
  2  3  1  0  0  0  0
  2  5  1  0  0  0  0
  2  6  1  0  0  0  0
  3  4  1  0  0  0  0
M  END
>  <DSSTox_RID>
20833

>  <DSSTox_CID>
833

>  <DSSTox_Generic_SID>
20833

>  <DSSTox_FileID>
872_CPDBAS_v5d

>  <STRUCTURE_Formula>
C5H12O

>  <STRUCTURE_MolecularWeight>
88.1482

>  <STRUCTURE_ChemicalType>
defined organic

>  <STRUCTURE_TestedForm_DefinedOrganic>
parent

>  <STRUCTURE_Shown>
tested chemical

>  <TestSubstance_ChemicalName>
Methyl tert-butyl ether

>  <TestSubstance_CASRN>
1634-04-4

>  <TestSubstance_Description>
single chemical compound

>  <STRUCTURE_ChemicalName_IUPAC>
1,1-dimethylethyl methyl ether

>  <STRUCTURE_SMILES>
CC(OC)(C)C

>  <STRUCTURE_Parent_SMILES>
CC(OC)(C)C

>  <STRUCTURE_InChI>
InChI=1/C5H12O/c1-5(2,3)6-4/h1-4H3

>  <STRUCTURE_InChIKey>
BZLVMXJERCGZMT-UHFFFAOYAA

>  <StudyType>
Carcinogenicity

>  <Endpoint>
TD50; Tumor Target Sites

>  <Species>
rat; mouse

>  <ActivityOutcome_CPDBAS_Mutagenicity>
inactive

>  <TD50_Rat_mg>
702

>  <TD50_Rat_mmol>
7.96

>  <ActivityScore_CPDBAS_Rat>
16

>  <TD50_Rat_Note>
TD50 is harmonic mean of more than one positive test

>  <TargetSites_Rat_Male>
kidney; testes

>  <TargetSites_Rat_Female>
hematopoietic system

>  <ActivityOutcome_CPDBAS_Rat>
active

>  <TD50_Mouse_mg>
6550

>  <TD50_Mouse_mmol>
74.3

>  <ActivityScore_CPDBAS_Mouse>
7

>  <TargetSites_Mouse_Male>
no positive results

>  <TargetSites_Mouse_Female>
liver

>  <ActivityOutcome_CPDBAS_Mouse>
active

>  <ActivityOutcome_CPDBAS_SingleCellCall>
active

>  <ActivityOutcome_CPDBAS_MultiCellCall>
active

>  <ActivityOutcome_CPDBAS_MultiCellCall_Details>
multisite active; multisex active; multispecies active

>  <ChemicalPage_URL>
http://potency.berkeley.edu/chempages/METHYL%20tert-BUTYL%20ETHER.html

$$$$



  5  4  0  0  0  0  0  0  0  0999 V2000
    0.0000   -1.9945    0.0000 N   0  0  0  0  0  0  0  0  0  0  0  0
    1.1511   -1.3308    0.0000 C   0  0  0  0  0  0  0  0  0  0  0  0
    1.1511    0.0000    0.0000 O   0  0  0  0  0  0  0  0  0  0  0  0
    2.3056   -1.9945    0.0000 O   0  0  0  0  0  0  0  0  0  0  0  0
    3.4567   -1.3308    0.0000 C   0  0  0  0  0  0  0  0  0  0  0  0
  1  2  1  0  0  0  0
  2  3  2  0  0  0  0
  2  4  1  0  0  0  0
  4  5  1  0  0  0  0
M  END
>  <DSSTox_RID>
20834

>  <DSSTox_CID>
834

>  <DSSTox_Generic_SID>
20834

>  <DSSTox_FileID>
873_CPDBAS_v5d

>  <STRUCTURE_Formula>
C2H5NO2

>  <STRUCTURE_MolecularWeight>
75.0666

>  <STRUCTURE_ChemicalType>
defined organic

>  <STRUCTURE_TestedForm_DefinedOrganic>
parent

>  <STRUCTURE_Shown>
tested chemical

>  <TestSubstance_ChemicalName>
Methyl carbamate

>  <TestSubstance_CASRN>
598-55-0

>  <TestSubstance_Description>
single chemical compound

>  <STRUCTURE_ChemicalName_IUPAC>
methyl carbamate

>  <STRUCTURE_SMILES>
NC(=O)OC

>  <STRUCTURE_Parent_SMILES>
NC(=O)OC

>  <STRUCTURE_InChI>
InChI=1/C2H5NO2/c1-5-2(3)4/h1H3,(H2,3,4)/f/h3H2

>  <STRUCTURE_InChIKey>
GTCAXTIRRLKXRU-ZZOWFUDICJ

>  <StudyType>
Carcinogenicity

>  <Endpoint>
TD50; Tumor Target Sites

>  <Species>
rat; mouse

>  <ActivityOutcome_CPDBAS_Mutagenicity>
inactive

>  <TD50_Rat_mg>
56.6

>  <TD50_Rat_mmol>
0.754

>  <ActivityScore_CPDBAS_Rat>
27

>  <TD50_Rat_Note>
TD50 is harmonic mean of more than one positive test; greater than ten-fold variation among TD50 values for positive results

>  <TargetSites_Rat_Male>
liver

>  <TargetSites_Rat_Female>
liver

>  <ActivityOutcome_CPDBAS_Rat>
active

>  <ActivityScore_CPDBAS_Mouse>
0

>  <TD50_Mouse_Note>
no positive results

>  <TargetSites_Mouse_Male>
no positive results

>  <TargetSites_Mouse_Female>
no positive results

>  <ActivityOutcome_CPDBAS_Mouse>
inactive

>  <ActivityOutcome_CPDBAS_SingleCellCall>
active

>  <ActivityOutcome_CPDBAS_MultiCellCall>
active

>  <ActivityOutcome_CPDBAS_MultiCellCall_Details>
multisex active

>  <Note_CPDBAS>
TD50_Rat modified v2a

>  <NTP_TechnicalReport>
TR 328

>  <ChemicalPage_URL>
http://potency.berkeley.edu/chempages/METHYL%20CARBAMATE.html

$$$$



  6  5  0  0  0  0  0  0  0  0999 V2000
    2.6616    0.0000    0.0000 O   0  0  0  0  0  0  0  0  0  0  0  0
    1.9952   -1.1492    0.0000 C   0  0  0  0  0  0  0  0  0  0  0  0
    2.6616   -2.3025    0.0000 N   0  0  0  0  0  0  0  0  0  0  0  0
    3.9905   -2.3025    0.0000 N   0  0  0  0  0  0  0  0  0  0  0  0
    0.6664   -1.1492    0.0000 O   0  0  0  0  0  0  0  0  0  0  0  0
    0.0000   -2.3025    0.0000 C   0  0  0  0  0  0  0  0  0  0  0  0
  1  2  2  0  0  0  0
  2  3  1  0  0  0  0
  2  5  1  0  0  0  0
  3  4  1  0  0  0  0
  5  6  1  0  0  0  0
M  END
>  <DSSTox_RID>
20835

>  <DSSTox_CID>
835

>  <DSSTox_Generic_SID>
20835

>  <DSSTox_FileID>
874_CPDBAS_v5d

>  <STRUCTURE_Formula>
C2H6N2O2

>  <STRUCTURE_MolecularWeight>
90.0816

>  <STRUCTURE_ChemicalType>
defined organic

>  <STRUCTURE_TestedForm_DefinedOrganic>
parent

>  <STRUCTURE_Shown>
tested chemical

>  <TestSubstance_ChemicalName>
Methyl carbazate

>  <TestSubstance_CASRN>
6294-89-9

>  <TestSubstance_Description>
single chemical compound

>  <STRUCTURE_ChemicalName_IUPAC>
methyl hydrazinecarboxylate

>  <STRUCTURE_SMILES>
O=C(NN)OC

>  <STRUCTURE_Parent_SMILES>
O=C(NN)OC

>  <STRUCTURE_InChI>
InChI=1/C2H6N2O2/c1-6-2(5)4-3/h3H2,1H3,(H,4,5)/f/h4H

>  <STRUCTURE_InChIKey>
WFJRIDQGVSJLLH-JLSKMEETCV

>  <StudyType>
Carcinogenicity

>  <Endpoint>
TD50; Tumor Target Sites

>  <Species>
rat

>  <ActivityScore_CPDBAS_Rat>
0

>  <TD50_Rat_Note>
no positive results

>  <TargetSites_Rat_Male>
no positive results

>  <TargetSites_Rat_Female>
no positive results

>  <ActivityOutcome_CPDBAS_Rat>
inactive

>  <ActivityOutcome_CPDBAS_SingleCellCall>
inactive

>  <ActivityOutcome_CPDBAS_MultiCellCall>
inactive

>  <ActivityOutcome_CPDBAS_MultiCellCall_Details>
multisex inactive

>  <ChemicalPage_URL>
http://potency.berkeley.edu/chempages/METHYL%20CARBAZATE.html

$$$$



 13 13  0  0  0  0  0  0  0  0999 V2000
    2.3223   -2.6378    0.0000 C   0  0  0  0  0  0  0  0  0  0  0  0
    6.9344   -2.6378    0.0000 C   0  0  0  0  0  0  0  0  0  0  0  0
    3.4470   -1.9905    0.0000 C   0  0  0  0  0  0  0  0  0  0  0  0
    4.6202   -2.6621    0.0000 O   0  0  0  0  0  0  0  0  0  0  0  0
    1.1652   -1.9905    0.0000 C   0  0  0  0  0  0  0  0  0  0  0  0
    8.0915   -1.9905    0.0000 O   0  0  0  0  0  0  0  0  0  0  0  0
    3.4470   -0.6554    0.0000 C   0  0  0  0  0  0  0  0  0  0  0  0
    5.7692   -1.9905    0.0000 C   0  0  0  0  0  0  0  0  0  0  0  0
    1.1652   -0.6554    0.0000 C   0  0  0  0  0  0  0  0  0  0  0  0
    6.9344   -3.9810    0.0000 O   0  0  0  0  0  0  0  0  0  0  0  0
    2.3223    0.0000    0.0000 C   0  0  0  0  0  0  0  0  0  0  0  0
    0.0000    0.0000    0.0000 Cl  0  0  0  0  0  0  0  0  0  0  0  0
    2.3223   -3.9810    0.0000 C   0  0  0  0  0  0  0  0  0  0  0  0
  1  3  2  0  0  0  0
  1  5  1  0  0  0  0
  1 13  1  0  0  0  0
  2  8  1  0  0  0  0
  2  6  2  0  0  0  0
  2 10  1  0  0  0  0
  3  4  1  0  0  0  0
  3  7  1  0  0  0  0
  4  8  1  0  0  0  0
  5  9  2  0  0  0  0
  7 11  2  0  0  0  0
  9 11  1  0  0  0  0
  9 12  1  0  0  0  0
M  END
>  <DSSTox_RID>
40806

>  <DSSTox_CID>
4195

>  <DSSTox_Generic_SID>
24195

>  <DSSTox_FileID>
875_CPDBAS_v5d

>  <STRUCTURE_Formula>
C9H9ClO3

>  <STRUCTURE_MolecularWeight>
200.619

>  <STRUCTURE_ChemicalType>
defined organic

>  <STRUCTURE_TestedForm_DefinedOrganic>
parent

>  <STRUCTURE_Shown>
tested chemical

>  <TestSubstance_ChemicalName>
2-Methyl-4-chlorophenoxyacetic acid

>  <TestSubstance_CASRN>
94-74-6

>  <TestSubstance_Description>
single chemical compound

>  <STRUCTURE_ChemicalName_IUPAC>
(4-chloro-2-methylphenoxy)acetic acid

>  <STRUCTURE_SMILES>
O=C(O)COC1=C(C)C=C(Cl)C=C1

>  <STRUCTURE_Parent_SMILES>
O=C(O)COC1=C(C)C=C(Cl)C=C1

>  <STRUCTURE_InChI>
InChI=1/C9H9ClO3/c1-6-4-7(10)2-3-8(6)13-5-9(11)12/h2-4H,5H2,1H3,(H,11,12)/f/h11H

>  <STRUCTURE_InChIKey>
WHKUVVPPKQRRBV-WXRBYKJCCG

>  <StudyType>
Carcinogenicity

>  <Endpoint>
TD50; Tumor Target Sites

>  <Species>
rat; mouse

>  <ActivityScore_CPDBAS_Rat>
0

>  <TD50_Rat_Note>
no positive results

>  <TargetSites_Rat_Male>
no positive results

>  <TargetSites_Rat_Female>
no positive results

>  <ActivityOutcome_CPDBAS_Rat>
inactive

>  <ActivityScore_CPDBAS_Mouse>
0

>  <TD50_Mouse_Note>
no positive results

>  <TargetSites_Mouse_Male>
no positive results

>  <TargetSites_Mouse_Female>
no positive results

>  <ActivityOutcome_CPDBAS_Mouse>
inactive

>  <ActivityOutcome_CPDBAS_SingleCellCall>
inactive

>  <ActivityOutcome_CPDBAS_MultiCellCall>
inactive

>  <ActivityOutcome_CPDBAS_MultiCellCall_Details>
multisex inactive; multispecies inactive

>  <Note_CPDBAS>
Rat added v5a; Mouse added v5a; chemical added v5a

>  <ChemicalPage_URL>
http://potency.berkeley.edu/chempages/2-METHYL-4-CHLOROPHENOXYACETIC%20ACID.html

$$$$



 21 22  0  0  0  0  0  0  0  0999 V2000
    1.1532   -3.3246    0.0000 O   0  0  0  0  0  0  0  0  0  0  0  0
    1.1532   -1.9997    0.0000 C   0  0  0  0  0  0  0  0  0  0  0  0
    2.3064   -1.3249    0.0000 C   0  0  0  0  0  0  0  0  0  0  0  0
    3.4473   -0.6625    0.0000 C   0  0  0  0  0  0  0  0  0  0  0  0
    2.9689   -2.4781    0.0000 O   0  0  0  0  0  0  0  0  0  0  0  0
    4.2938   -2.4781    0.0000 C   0  0  0  0  0  0  0  0  0  0  0  0
    4.9563   -1.3249    0.0000 C   0  0  0  0  0  0  0  0  0  0  0  0
    6.2935   -1.3249    0.0000 C   0  0  0  0  0  0  0  0  0  0  0  0
    6.9560   -2.4781    0.0000 C   0  0  0  0  0  0  0  0  0  0  0  0
    6.2935   -3.6313    0.0000 C   0  0  0  0  0  0  0  0  0  0  0  0
    4.9563   -3.6313    0.0000 C   0  0  0  0  0  0  0  0  0  0  0  0
    8.2809   -2.4781    0.0000 C   0  0  0  0  0  0  0  0  0  0  0  0
    8.9434   -1.3249    0.0000 C   0  0  0  0  0  0  0  0  0  0  0  0
   10.2806   -1.3249    0.0000 C   0  0  0  0  0  0  0  0  0  0  0  0
   10.9431   -2.4781    0.0000 C   0  0  0  0  0  0  0  0  0  0  0  0
   10.2806   -3.6313    0.0000 C   0  0  0  0  0  0  0  0  0  0  0  0
    8.9434   -3.6313    0.0000 C   0  0  0  0  0  0  0  0  0  0  0  0
   12.2680   -2.4781    0.0000 Cl  0  0  0  0  0  0  0  0  0  0  0  0
    1.6316   -0.1840    0.0000 C   0  0  0  0  0  0  0  0  0  0  0  0
    0.0000   -1.3249    0.0000 O   0  0  0  0  0  0  0  0  0  0  0  0
    0.0000    0.0000    0.0000 C   0  0  0  0  0  0  0  0  0  0  0  0
  1  2  2  0  0  0  0
  2  3  1  0  0  0  0
  2 20  1  0  0  0  0
  3  4  1  0  0  0  0
  3  5  1  0  0  0  0
  3 19  1  0  0  0  0
  5  6  1  0  0  0  0
  6  7  2  0  0  0  0
  6 11  1  0  0  0  0
  7  8  1  0  0  0  0
  8  9  2  0  0  0  0
  9 10  1  0  0  0  0
  9 12  1  0  0  0  0
 10 11  2  0  0  0  0
 12 13  2  0  0  0  0
 12 17  1  0  0  0  0
 13 14  1  0  0  0  0
 14 15  2  0  0  0  0
 15 16  1  0  0  0  0
 15 18  1  0  0  0  0
 16 17  2  0  0  0  0
 20 21  1  0  0  0  0
M  END
>  <DSSTox_RID>
20836

>  <DSSTox_CID>
836

>  <DSSTox_Generic_SID>
20836

>  <DSSTox_FileID>
876_CPDBAS_v5d

>  <STRUCTURE_Formula>
C17H17ClO3

>  <STRUCTURE_MolecularWeight>
304.7681

>  <STRUCTURE_ChemicalType>
defined organic

>  <STRUCTURE_TestedForm_DefinedOrganic>
parent

>  <STRUCTURE_Shown>
tested chemical

>  <TestSubstance_ChemicalName>
Methyl clofenapate

>  <TestSubstance_CASRN>
21340-68-1

>  <TestSubstance_Description>
single chemical compound

>  <STRUCTURE_ChemicalName_IUPAC>
methyl 2-[(4'-chlorobiphenyl-4-yl)oxy]-2-methylpropanoate

>  <STRUCTURE_SMILES>
O=C(C(C)(OC1=CC=C(C=C1)C2=CC=C(C=C2)Cl)C)OC

>  <STRUCTURE_Parent_SMILES>
O=C(C(C)(OC1=CC=C(C=C1)C2=CC=C(C=C2)Cl)C)OC

>  <STRUCTURE_InChI>
InChI=1/C17H17ClO3/c1-17(2,16(19)20-3)21-15-10-6-13(7-11-15)12-4-8-14(18)9-5-12/h4-11H,1-3H3

>  <STRUCTURE_InChIKey>
CLJAWWBXVXWHFD-UHFFFAOYAW

>  <StudyType>
Carcinogenicity

>  <Endpoint>
TD50; Tumor Target Sites

>  <Species>
rat; mouse

>  <TD50_Rat_mg>
4.78

>  <TD50_Rat_mmol>
0.0157

>  <ActivityScore_CPDBAS_Rat>
44

>  <TD50_Rat_Note>
TD50 is harmonic mean of more than one positive test; harmonic mean of TD50 includes a value for upper 99% confidence limit from study with 100% tumor incidence but no lifetable

>  <TargetSites_Rat_Male>
liver; pancreas; testes

>  <TargetSites_Rat_Female>
liver

>  <ActivityOutcome_CPDBAS_Rat>
active

>  <TD50_Mouse_mg>
2.51

>  <TD50_Mouse_mmol>
0.00824

>  <ActivityScore_CPDBAS_Mouse>
52

>  <TD50_Mouse_Note>
TD50 is harmonic mean of more than one positive test; greater than ten-fold variation among TD50 values for positive results

>  <TargetSites_Mouse_Male>
liver

>  <TargetSites_Mouse_Female>
liver

>  <ActivityOutcome_CPDBAS_Mouse>
active

>  <ActivityOutcome_CPDBAS_SingleCellCall>
active

>  <ActivityOutcome_CPDBAS_MultiCellCall>
active

>  <ActivityOutcome_CPDBAS_MultiCellCall_Details>
multisite active; multisex active; multispecies active

>  <Note_CPDBAS>
TD50_Rat modified v2a; TD50_Mouse modified v2a; TargetSites_Rat_Male modified v2a; TargetSites_Rat_Female modified v2a; TargetSites_Mouse_Male modified v2a; TargetSites_Mouse_Female modified v2a; TD50_Rat_Note modified v5a

>  <ChemicalPage_URL>
http://potency.berkeley.edu/chempages/METHYL%20CLOFENAPATE.html

$$$$



 18 19  0  0  0  0  0  0  0  0999 V2000
    0.0000   -4.6031    0.0000 C   0  0  0  0  0  0  0  0  0  0  0  0
    0.6591   -3.4550    0.0000 N   0  0  0  0  0  0  0  0  0  0  0  0
    1.9879   -3.4550    0.0000 C   0  0  0  0  0  0  0  0  0  0  0  0
    2.6577   -2.2962    0.0000 C   0  0  0  0  0  0  0  0  0  0  0  0
    3.9865   -2.2962    0.0000 C   0  0  0  0  0  0  0  0  0  0  0  0
    4.6562   -3.4550    0.0000 C   0  0  0  0  0  0  0  0  0  0  0  0
    3.9865   -4.6031    0.0000 C   0  0  0  0  0  0  0  0  0  0  0  0
    2.6577   -4.6031    0.0000 C   0  0  0  0  0  0  0  0  0  0  0  0
    5.9851   -3.4550    0.0000 N   0  0  0  0  0  0  0  0  0  0  0  0
    6.6442   -2.2962    0.0000 N   0  0  0  0  0  0  0  0  0  0  0  0
    7.9730   -2.2962    0.0000 C   0  0  0  0  0  0  0  0  0  0  0  0
    8.6428   -1.1481    0.0000 C   0  0  0  0  0  0  0  0  0  0  0  0
    9.9610   -1.1481    0.0000 C   0  0  0  0  0  0  0  0  0  0  0  0
   10.6307   -2.2962    0.0000 C   0  0  0  0  0  0  0  0  0  0  0  0
    9.9610   -3.4550    0.0000 C   0  0  0  0  0  0  0  0  0  0  0  0
    8.6428   -3.4550    0.0000 C   0  0  0  0  0  0  0  0  0  0  0  0
   10.6307    0.0000    0.0000 C   0  0  0  0  0  0  0  0  0  0  0  0
    0.0000   -2.2962    0.0000 C   0  0  0  0  0  0  0  0  0  0  0  0
  1  2  1  0  0  0  0
  2  3  1  0  0  0  0
  2 18  1  0  0  0  0
  3  4  2  0  0  0  0
  3  8  1  0  0  0  0
  4  5  1  0  0  0  0
  5  6  2  0  0  0  0
  6  7  1  0  0  0  0
  6  9  1  0  0  0  0
  7  8  2  0  0  0  0
  9 10  2  0  0  0  0
 10 11  1  0  0  0  0
 11 12  2  0  0  0  0
 11 16  1  0  0  0  0
 12 13  1  0  0  0  0
 13 14  2  0  0  0  0
 13 17  1  0  0  0  0
 14 15  1  0  0  0  0
 15 16  2  0  0  0  0
M  END
>  <DSSTox_RID>
20838

>  <DSSTox_CID>
838

>  <DSSTox_Generic_SID>
20838

>  <DSSTox_FileID>
878_CPDBAS_v5d

>  <STRUCTURE_Formula>
C15H17N3

>  <STRUCTURE_MolecularWeight>
239.3194

>  <STRUCTURE_ChemicalType>
defined organic

>  <STRUCTURE_TestedForm_DefinedOrganic>
parent

>  <STRUCTURE_Shown>
tested chemical

>  <TestSubstance_ChemicalName>
3'-Methyl-4-dimethylaminoazobenzene

>  <TestSubstance_CASRN>
55-80-1

>  <TestSubstance_Description>
single chemical compound

>  <STRUCTURE_ChemicalName_IUPAC>
N,N-dimethyl-4-[(E)-(3-methylphenyl)diazenyl]aniline

>  <STRUCTURE_SMILES>
CN(C1=CC=C(C=C1)/N=N/C2=CC(=CC=C2)C)C

>  <STRUCTURE_Parent_SMILES>
CN(C1=CC=C(C=C1)/N=N/C2=CC(=CC=C2)C)C

>  <STRUCTURE_InChI>
InChI=1/C15H17N3/c1-12-5-4-6-14(11-12)17-16-13-7-9-15(10-8-13)18(2)3/h4-11H,1-3H3/b17-16+

>  <STRUCTURE_InChIKey>
LVTFSVIRYMXRSR-WUKNDPDIBL

>  <StudyType>
Carcinogenicity

>  <Endpoint>
TD50; Tumor Target Sites

>  <Species>
rat; rhesus

>  <ActivityOutcome_CPDBAS_Mutagenicity>
active

>  <TD50_Rat_mg>
3.28

>  <TD50_Rat_mmol>
0.0137

>  <ActivityScore_CPDBAS_Rat>
45

>  <TD50_Rat_Note>
TD50 is harmonic mean of more than one positive test

>  <TargetSites_Rat_Male>
liver

>  <ActivityOutcome_CPDBAS_Rat>
active

>  <TargetSites_Rhesus>
no positive results

>  <TD50_Dog_Primates_Note>
no positive results for Rhesus

>  <ActivityOutcome_CPDBAS_Dog_Primates>
inactive

>  <ActivityOutcome_CPDBAS_SingleCellCall>
active

>  <ChemicalPage_URL>
http://potency.berkeley.edu/chempages/3'-METHYL-4-DIMETHYLAMINOAZOBENZENE.html

$$$$



 12 12  0  0  0  0  0  0  0  0999 V2000
    3.9879   -2.3050    0.0000 C   0  0  0  0  0  0  0  0  0  0  0  0
    2.6559   -2.3050    0.0000 C   0  0  0  0  0  0  0  0  0  0  0  0
    1.9939   -1.1565    0.0000 C   0  0  0  0  0  0  0  0  0  0  0  0
    2.6559    0.0000    0.0000 C   0  0  0  0  0  0  0  0  0  0  0  0
    3.9879    0.0000    0.0000 C   0  0  0  0  0  0  0  0  0  0  0  0
    4.6499   -1.1565    0.0000 C   0  0  0  0  0  0  0  0  0  0  0  0
    5.9818   -1.1565    0.0000 N   0  0  0  0  0  0  0  0  0  0  0  0
    6.6438   -2.3050    0.0000 C   0  0  0  0  0  0  0  0  0  0  0  0
    6.6438    0.0000    0.0000 N   0  0  0  0  0  0  0  0  0  0  0  0
    7.9758    0.0000    0.0000 O   0  0  0  0  0  0  0  0  0  0  0  0
    0.6620   -1.1565    0.0000 N   0  0  0  0  0  0  0  0  0  0  0  0
    0.0000   -2.3050    0.0000 O   0  0  0  0  0  0  0  0  0  0  0  0
  1  2  2  0  0  0  0
  1  6  1  0  0  0  0
  2  3  1  0  0  0  0
  3  4  2  0  0  0  0
  3 11  1  0  0  0  0
  4  5  1  0  0  0  0
  5  6  2  0  0  0  0
  6  7  1  0  0  0  0
  7  8  1  0  0  0  0
  7  9  1  0  0  0  0
  9 10  2  0  0  0  0
 11 12  2  0  0  0  0
M  END
>  <DSSTox_RID>
20839

>  <DSSTox_CID>
839

>  <DSSTox_Generic_SID>
20839

>  <DSSTox_FileID>
879_CPDBAS_v5d

>  <STRUCTURE_Formula>
C7H7N3O2

>  <STRUCTURE_MolecularWeight>
165.1512

>  <STRUCTURE_ChemicalType>
defined organic

>  <STRUCTURE_TestedForm_DefinedOrganic>
parent

>  <STRUCTURE_Shown>
tested chemical

>  <TestSubstance_ChemicalName>
N-Methyl-N,4-dinitrosoaniline

>  <TestSubstance_CASRN>
99-80-9

>  <TestSubstance_Description>
single chemical compound

>  <STRUCTURE_ChemicalName_IUPAC>
N-methyl-N,4-dinitrosoaniline

>  <STRUCTURE_SMILES>
C1=CC(=CC=C1N(C)N=O)N=O

>  <STRUCTURE_Parent_SMILES>
C1=CC(=CC=C1N(C)N=O)N=O

>  <STRUCTURE_InChI>
InChI=1/C7H7N3O2/c1-10(9-12)7-4-2-6(8-11)3-5-7/h2-5H,1H3

>  <STRUCTURE_InChIKey>
FMGUJLASXUBMOP-UHFFFAOYAX

>  <StudyType>
Carcinogenicity

>  <Endpoint>
TD50; Tumor Target Sites

>  <Species>
rat

>  <TD50_Rat_mg>
1.3

>  <TD50_Rat_mmol>
0.00787

>  <ActivityScore_CPDBAS_Rat>
47

>  <TD50_Rat_Note>
positive test results only by intraperitoneal or intravenous injection; no positive results are statistically significant

>  <TargetSites_Rat_Male>
peritoneal cavity

>  <ActivityOutcome_CPDBAS_Rat>
active

>  <ActivityOutcome_CPDBAS_SingleCellCall>
active

>  <ChemicalPage_URL>
http://potency.berkeley.edu/chempages/N-METHYL-N,4-DINITROSOANILINE.html

$$$$



  5  4  0  0  0  0  0  0  0  0999 V2000
    2.3056    0.0000    0.0000 C   0  0  0  0  0  0  0  0  0  0  0  0
    2.3056   -1.3308    0.0000 N   0  0  0  0  0  0  0  0  0  0  0  0
    3.4567   -1.9945    0.0000 N   0  0  0  0  0  0  0  0  0  0  0  0
    1.1511   -1.9945    0.0000 C   0  0  0  0  0  0  0  0  0  0  0  0
    0.0000   -1.3308    0.0000 O   0  0  0  0  0  0  0  0  0  0  0  0
  1  2  1  0  0  0  0
  2  3  1  0  0  0  0
  2  4  1  0  0  0  0
  4  5  2  0  0  0  0
M  END
>  <DSSTox_RID>
20840

>  <DSSTox_CID>
840

>  <DSSTox_Generic_SID>
20840

>  <DSSTox_FileID>
880_CPDBAS_v5d

>  <STRUCTURE_Formula>
C2H6N2O

>  <STRUCTURE_MolecularWeight>
74.0822

>  <STRUCTURE_ChemicalType>
defined organic

>  <STRUCTURE_TestedForm_DefinedOrganic>
parent

>  <STRUCTURE_Shown>
tested chemical

>  <TestSubstance_ChemicalName>
N-Methyl-N-formylhydrazine

>  <TestSubstance_CASRN>
758-17-8

>  <TestSubstance_Description>
single chemical compound

>  <STRUCTURE_ChemicalName_IUPAC>
N-methylformic hydrazide

>  <STRUCTURE_SMILES>
CN(N)C=O

>  <STRUCTURE_Parent_SMILES>
CN(N)C=O

>  <STRUCTURE_InChI>
InChI=1/C2H6N2O/c1-4(3)2-5/h2H,3H2,1H3

>  <STRUCTURE_InChIKey>
RSFOTOSOKJMMCB-UHFFFAOYAA

>  <StudyType>
Carcinogenicity

>  <Endpoint>
TD50; Tumor Target Sites

>  <Species>
mouse; hamster

>  <TD50_Mouse_mg>
1.37

>  <TD50_Mouse_mmol>
0.0185

>  <ActivityScore_CPDBAS_Mouse>
48

>  <TD50_Mouse_Note>
TD50 is harmonic mean of more than one positive test; greater than ten-fold variation among TD50 values for positive results

>  <TargetSites_Mouse_Male>
gall bladder; liver; lung; vascular system

>  <TargetSites_Mouse_Female>
gall bladder; liver; lung; vascular system

>  <ActivityOutcome_CPDBAS_Mouse>
active

>  <TD50_Hamster_mg>
5.8

>  <TD50_Hamster_mmol>
0.0783

>  <ActivityScore_CPDBAS_Hamster>
53

>  <TD50_Hamster_Note>
TD50 is harmonic mean of more than one positive test

>  <TargetSites_Hamster_Male>
gall bladder; liver

>  <TargetSites_Hamster_Female>
gall bladder; liver

>  <ActivityOutcome_CPDBAS_Hamster>
active

>  <ActivityOutcome_CPDBAS_SingleCellCall>
active

>  <ActivityOutcome_CPDBAS_MultiCellCall>
active

>  <ActivityOutcome_CPDBAS_MultiCellCall_Details>
multisite active; multisex active; multispecies active

>  <ChemicalPage_URL>
http://potency.berkeley.edu/chempages/N-METHYL-N-FORMYLHYDRAZINE.html

$$$$



 44 48  0  0  1  0  0  0  0  0999 V2000
   13.9080   -5.9397    0.0000 C   0  0  0  0  0  0  0  0  0  0  0  0
   15.0792   -6.6089    0.0000 C   0  0  0  0  0  0  0  0  0  0  0  0
   13.9080   -4.6430    0.0000 C   0  0  0  0  0  0  0  0  0  0  0  0
   15.0792   -4.0155    0.0000 O   0  0  0  0  0  0  0  0  0  0  0  0
   12.7786   -6.6089    0.0000 C   0  0  0  0  0  0  0  0  0  0  0  0
   16.2295   -4.6430    0.0000 C   0  0  1  0  0  0  0  0  0  0  0  0
   16.2295   -5.9397    0.0000 C   0  0  0  0  0  0  0  0  0  0  0  0
   11.6283   -4.6430    0.0000 C   0  0  0  0  0  0  0  0  0  0  0  0
   12.7786   -4.0155    0.0000 C   0  0  0  0  0  0  0  0  0  0  0  0
   10.3526   -3.9319    0.0000 O   0  0  0  0  0  0  0  0  0  0  0  0
   11.6283   -5.9397    0.0000 C   0  0  0  0  0  0  0  0  0  0  0  0
   17.4425   -4.0155    0.0000 C   0  0  0  0  0  0  0  0  0  0  0  0
   17.4216   -2.6770    0.0000 C   0  0  0  0  0  0  0  0  0  0  0  0
   18.5719   -2.0287    0.0000 C   0  0  0  0  0  0  0  0  0  0  0  0
   15.0792   -7.9683    0.0000 O   0  0  0  0  0  0  0  0  0  0  0  0
   19.7222   -2.7189    0.0000 C   0  0  0  0  0  0  0  0  0  0  0  0
   18.5301   -4.6848    0.0000 C   0  0  0  0  0  0  0  0  0  0  0  0
   19.7013   -4.0574    0.0000 C   0  0  0  0  0  0  0  0  0  0  0  0
   12.7786   -7.9683    0.0000 O   0  0  0  0  0  0  0  0  0  0  0  0
   18.6137   -0.6902    0.0000 O   0  0  0  0  0  0  0  0  0  0  0  0
   20.8934   -2.0705    0.0000 O   0  0  0  0  0  0  0  0  0  0  0  0
   20.9143   -0.7320    0.0000 C   0  0  0  0  0  0  0  0  0  0  0  0
    9.2232   -4.6011    0.0000 C   0  0  1  0  0  0  0  0  0  0  0  0
    9.2232   -5.8978    0.0000 C   0  0  1  0  0  0  0  0  0  0  0  0
    8.0520   -3.9319    0.0000 O   0  0  0  0  0  0  0  0  0  0  0  0
    8.0520   -6.5671    0.0000 C   0  0  2  0  0  0  0  0  0  0  0  0
    6.9017   -4.6011    0.0000 C   0  0  1  0  0  0  0  0  0  0  0  0
    6.9017   -5.8978    0.0000 C   0  0  1  0  0  0  0  0  0  0  0  0
   10.3526   -6.5671    0.0000 O   0  0  0  0  0  0  0  0  0  0  0  0
    8.0520   -7.9056    0.0000 O   0  0  0  0  0  0  0  0  0  0  0  0
    5.7305   -6.5671    0.0000 O   0  0  0  0  0  0  0  0  0  0  0  0
    5.7305   -3.9319    0.0000 C   0  0  0  0  0  0  0  0  0  0  0  0
    4.5802   -4.6011    0.0000 O   0  0  0  0  0  0  0  0  0  0  0  0
    3.4299   -3.9319    0.0000 C   0  0  1  0  0  0  0  0  0  0  0  0
    2.3006   -4.6011    0.0000 C   0  0  1  0  0  0  0  0  0  0  0  0
    3.4299   -2.5934    0.0000 O   0  0  0  0  0  0  0  0  0  0  0  0
    1.1503   -3.9319    0.0000 C   0  0  1  0  0  0  0  0  0  0  0  0
    2.3006   -1.9241    0.0000 C   0  0  2  0  0  0  0  0  0  0  0  0
    1.1503   -2.5934    0.0000 C   0  0  2  0  0  0  0  0  0  0  0  0
    2.3006   -5.8978    0.0000 O   0  0  0  0  0  0  0  0  0  0  0  0
    0.0000   -4.6011    0.0000 O   0  0  0  0  0  0  0  0  0  0  0  0
    0.0000   -1.9241    0.0000 O   0  0  0  0  0  0  0  0  0  0  0  0
    2.3006   -0.5856    0.0000 C   0  0  0  0  0  0  0  0  0  0  0  0
   17.4634    0.0000    0.0000 C   0  0  0  0  0  0  0  0  0  0  0  0
  1  2  1  0  0  0  0
  1  3  2  0  0  0  0
  1  5  1  0  0  0  0
  2  7  1  0  0  0  0
  2 15  2  0  0  0  0
  3  4  1  0  0  0  0
  3  9  1  0  0  0  0
  4  6  1  0  0  0  0
  5 11  2  0  0  0  0
  5 19  1  0  0  0  0
  6 12  1  6  0  0  0
  6  7  1  0  0  0  0
  8 11  1  0  0  0  0
  8 10  1  0  0  0  0
  8  9  2  0  0  0  0
 23 10  1  1  0  0  0
 12 13  2  0  0  0  0
 12 17  1  0  0  0  0
 13 14  1  0  0  0  0
 14 20  1  0  0  0  0
 14 16  2  0  0  0  0
 16 18  1  0  0  0  0
 16 21  1  0  0  0  0
 17 18  2  0  0  0  0
 20 44  1  0  0  0  0
 21 22  1  0  0  0  0
 23 24  1  0  0  0  0
 23 25  1  0  0  0  0
 24 26  1  0  0  0  0
 24 29  1  6  0  0  0
 25 27  1  0  0  0  0
 26 28  1  0  0  0  0
 26 30  1  1  0  0  0
 27 28  1  0  0  0  0
 27 32  1  1  0  0  0
 28 31  1  6  0  0  0
 32 33  1  0  0  0  0
 34 33  1  1  0  0  0
 34 35  1  0  0  0  0
 34 36  1  0  0  0  0
 35 37  1  0  0  0  0
 35 40  1  6  0  0  0
 36 38  1  0  0  0  0
 37 39  1  0  0  0  0
 37 41  1  6  0  0  0
 38 39  1  0  0  0  0
 38 43  1  6  0  0  0
 39 42  1  1  0  0  0
M  END
>  <DSSTox_RID>
20841

>  <DSSTox_CID>
841

>  <DSSTox_Generic_SID>
20841

>  <DSSTox_FileID>
881_CPDBAS_v5d

>  <STRUCTURE_Formula>
C29H36O15

>  <STRUCTURE_MolecularWeight>
624.5944

>  <STRUCTURE_ChemicalType>
defined organic

>  <STRUCTURE_TestedForm_DefinedOrganic>
parent

>  <STRUCTURE_Shown>
tested chemical

>  <TestSubstance_ChemicalName>
Methyl hesperidin

>  <TestSubstance_CASRN>
11013-97-1

>  <TestSubstance_Description>
single chemical compound

>  <ChemicalNote>
stereochem

>  <STRUCTURE_ChemicalName_IUPAC>
(2S)-2-[3,4-bis(methyloxy)phenyl]-5-hydroxy-4-oxo-3,4-dihydro-2H-chromen-7-yl 6-O-(6-deoxy-alpha-L-mannopyranosyl)-beta-D-glucopyranoside

>  <STRUCTURE_SMILES>
O=C(C3)C(C(O)=CC(O[C@H]4[C@H](O)[C@@H](O)[C@H](O)[C@@H](CO[C@H]5[C@H](O)[C@H](O)[C@@H](O)[C@H](C)O5)O4)=C2)=C2O[C@@H]3[C@@]1=CC(OC)=C(OC)C=C1

>  <STRUCTURE_Parent_SMILES>
O=C(C3)C(C(O)=CC(O[C@H]4[C@H](O)[C@@H](O)[C@H](O)[C@@H](CO[C@H]5[C@H](O)[C@H](O)[C@@H](O)[C@H](C)O5)O4)=C2)=C2O[C@@H]3[C@@]1=CC(OC)=C(OC)C=C1

>  <STRUCTURE_InChI>
InChI=1/C29H36O15/c1-11-22(32)24(34)26(36)28(41-11)40-10-20-23(33)25(35)27(37)29(44-20)42-13-7-14(30)21-15(31)9-17(43-19(21)8-13)12-4-5-16(38-2)18(6-12)39-3/h4-8,11,17,20,22-30,32-37H,9-10H2,1-3H3/t11-,17-,20+,22-,23+,24+,25-,26+,27+,28+,29+/m0/s1

>  <STRUCTURE_InChIKey>
GUMSHIGGVOJLBP-SLRPQMTOBE

>  <StudyType>
Carcinogenicity

>  <Endpoint>
TD50; Tumor Target Sites

>  <Species>
mouse

>  <ActivityScore_CPDBAS_Mouse>
0

>  <TD50_Mouse_Note>
no positive results

>  <TargetSites_Mouse_Male>
no positive results

>  <TargetSites_Mouse_Female>
no positive results

>  <ActivityOutcome_CPDBAS_Mouse>
inactive

>  <ActivityOutcome_CPDBAS_SingleCellCall>
inactive

>  <ActivityOutcome_CPDBAS_MultiCellCall>
inactive

>  <ActivityOutcome_CPDBAS_MultiCellCall_Details>
multisex inactive

>  <ChemicalPage_URL>
http://potency.berkeley.edu/chempages/METHYL%20HESPERIDIN.html

$$$$



 23 22  0  0  0  0  0  0  0  0999 V2000
   17.2800   -2.2968    0.0000 C   0  0  0  0  0  0  0  0  0  0  0  0
   15.9521   -2.2968    0.0000 C   0  0  0  0  0  0  0  0  0  0  0  0
   15.2882   -3.4632    0.0000 C   0  0  0  0  0  0  0  0  0  0  0  0
   13.9604   -3.4632    0.0000 C   0  0  0  0  0  0  0  0  0  0  0  0
   13.2964   -4.6116    0.0000 C   0  0  0  0  0  0  0  0  0  0  0  0
   11.9686   -4.6116    0.0000 C   0  0  0  0  0  0  0  0  0  0  0  0
   11.3047   -5.7600    0.0000 C   0  0  0  0  0  0  0  0  0  0  0  0
    9.9768   -5.7600    0.0000 C   0  0  0  0  0  0  0  0  0  0  0  0
    9.3129   -6.9084    0.0000 C   0  0  0  0  0  0  0  0  0  0  0  0
    7.9671   -6.9084    0.0000 C   0  0  0  0  0  0  0  0  0  0  0  0
    7.3032   -5.7600    0.0000 C   0  0  0  0  0  0  0  0  0  0  0  0
    5.9753   -5.7600    0.0000 C   0  0  0  0  0  0  0  0  0  0  0  0
    5.3114   -4.6116    0.0000 C   0  0  3  0  0  0  0  0  0  0  0  0
    3.9836   -4.6116    0.0000 C   0  0  0  0  0  0  0  0  0  0  0  0
    3.3196   -5.7600    0.0000 C   0  0  0  0  0  0  0  0  0  0  0  0
    1.9918   -5.7600    0.0000 C   0  0  0  0  0  0  0  0  0  0  0  0
    1.3279   -6.9084    0.0000 C   0  0  0  0  0  0  0  0  0  0  0  0
    0.0000   -6.9084    0.0000 C   0  0  0  0  0  0  0  0  0  0  0  0
   17.9439   -3.4632    0.0000 O   0  0  0  0  0  0  0  0  0  0  0  0
   17.9439   -1.1484    0.0000 O   0  0  0  0  0  0  0  0  0  0  0  0
    5.9753   -3.4632    0.0000 O   0  0  0  0  0  0  0  0  0  0  0  0
    5.3114   -2.2968    0.0000 O   0  0  0  0  0  0  0  0  0  0  0  0
   17.2800    0.0000    0.0000 C   0  0  0  0  0  0  0  0  0  0  0  0
  1  2  1  0  0  0  0
  1 19  2  0  0  0  0
  1 20  1  0  0  0  0
  2  3  1  0  0  0  0
  3  4  1  0  0  0  0
  4  5  1  0  0  0  0
  5  6  1  0  0  0  0
  6  7  1  0  0  0  0
  7  8  1  0  0  0  0
  8  9  1  0  0  0  0
  9 10  2  0  0  0  0
 10 11  1  0  0  0  0
 11 12  2  0  0  0  0
 12 13  1  0  0  0  0
 13 14  1  0  0  0  0
 13 21  1  0  0  0  0
 14 15  1  0  0  0  0
 15 16  1  0  0  0  0
 16 17  1  0  0  0  0
 17 18  1  0  0  0  0
 20 23  1  0  0  0  0
 21 22  1  0  0  0  0
M  END
>  <DSSTox_RID>
20842

>  <DSSTox_CID>
842

>  <DSSTox_Generic_SID>
20842

>  <DSSTox_FileID>
882_CPDBAS_v5d

>  <STRUCTURE_Formula>
C19H34O4

>  <STRUCTURE_MolecularWeight>
326.4752

>  <STRUCTURE_ChemicalType>
defined organic

>  <STRUCTURE_TestedForm_DefinedOrganic>
parent

>  <STRUCTURE_Shown>
tested chemical

>  <TestSubstance_ChemicalName>
Methyl linoleate hydroperoxide

>  <TestSubstance_CASRN>
27323-65-5

>  <TestSubstance_Description>
single chemical compound

>  <ChemicalNote>
stereochem

>  <STRUCTURE_ChemicalName_IUPAC>
methyl (9Z,11E)-13-hydroperoxyoctadeca-9,11-dienoate

>  <STRUCTURE_SMILES>
CCCCCC(/C=C/C=C\CCCCCCCC(=O)OC)OO

>  <STRUCTURE_Parent_SMILES>
CCCCCC(/C=C/C=C\CCCCCCCC(=O)OC)OO

>  <STRUCTURE_InChI>
InChI=1/C19H34O4/c1-3-4-12-15-18(23-21)16-13-10-8-6-5-7-9-11-14-17-19(20)22-2/h8,10,13,16,18,21H,3-7,9,11-12,14-15,17H2,1-2H3/b10-8-,16-13+

>  <STRUCTURE_InChIKey>
WWBBEXJQOOTEIL-GDVMHIJEBE

>  <StudyType>
Carcinogenicity

>  <Endpoint>
TD50; Tumor Target Sites

>  <Species>
rat

>  <ActivityScore_CPDBAS_Rat>
0

>  <TD50_Rat_Note>
no positive results

>  <TargetSites_Rat_Male>
no positive results

>  <ActivityOutcome_CPDBAS_Rat>
inactive

>  <ActivityOutcome_CPDBAS_SingleCellCall>
inactive

>  <ChemicalPage_URL>
http://potency.berkeley.edu/chempages/METHYL%20LINOLEATE%20HYDROPEROXIDE.html

$$$$



 21 20  0  0  0  0  0  0  0  0999 V2000
   11.2936    0.0000    0.0000 C   0  0  0  0  0  0  0  0  0  0  0  0
   11.9636   -1.1605    0.0000 C   0  0  0  0  0  0  0  0  0  0  0  0
   11.2936   -2.3090    0.0000 C   0  0  0  0  0  0  0  0  0  0  0  0
   11.9636   -3.4575    0.0000 C   0  0  0  0  0  0  0  0  0  0  0  0
   11.2936   -4.6060    0.0000 C   0  0  0  0  0  0  0  0  0  0  0  0
   11.9636   -5.7665    0.0000 C   0  0  0  0  0  0  0  0  0  0  0  0
   11.2936   -6.9150    0.0000 C   0  0  0  0  0  0  0  0  0  0  0  0
    9.9657   -6.9150    0.0000 C   0  0  0  0  0  0  0  0  0  0  0  0
    9.3077   -8.0635    0.0000 C   0  0  0  0  0  0  0  0  0  0  0  0
    7.9797   -8.0635    0.0000 C   0  0  0  0  0  0  0  0  0  0  0  0
    7.3098   -6.9150    0.0000 C   0  0  0  0  0  0  0  0  0  0  0  0
    5.9818   -6.9150    0.0000 C   0  0  0  0  0  0  0  0  0  0  0  0
    5.3118   -5.7665    0.0000 C   0  0  0  0  0  0  0  0  0  0  0  0
    3.9839   -5.7665    0.0000 C   0  0  0  0  0  0  0  0  0  0  0  0
    3.3259   -4.6060    0.0000 C   0  0  0  0  0  0  0  0  0  0  0  0
    1.9979   -4.6060    0.0000 C   0  0  0  0  0  0  0  0  0  0  0  0
    1.3280   -3.4575    0.0000 C   0  0  0  0  0  0  0  0  0  0  0  0
    1.9979   -2.3090    0.0000 C   0  0  0  0  0  0  0  0  0  0  0  0
    1.3280   -1.1605    0.0000 O   0  0  0  0  0  0  0  0  0  0  0  0
    0.0000   -1.1605    0.0000 C   0  0  0  0  0  0  0  0  0  0  0  0
    3.3259   -2.3090    0.0000 O   0  0  0  0  0  0  0  0  0  0  0  0
  1  2  1  0  0  0  0
  2  3  1  0  0  0  0
  3  4  1  0  0  0  0
  4  5  1  0  0  0  0
  5  6  1  0  0  0  0
  6  7  2  0  0  0  0
  7  8  1  0  0  0  0
  8  9  1  0  0  0  0
  9 10  2  0  0  0  0
 10 11  1  0  0  0  0
 11 12  1  0  0  0  0
 12 13  1  0  0  0  0
 13 14  1  0  0  0  0
 14 15  1  0  0  0  0
 15 16  1  0  0  0  0
 16 17  1  0  0  0  0
 17 18  1  0  0  0  0
 18 19  1  0  0  0  0
 18 21  2  0  0  0  0
 19 20  1  0  0  0  0
M  END
>  <DSSTox_RID>
20843

>  <DSSTox_CID>
843

>  <DSSTox_Generic_SID>
20843

>  <DSSTox_FileID>
883_CPDBAS_v5d

>  <STRUCTURE_Formula>
C19H34O2

>  <STRUCTURE_MolecularWeight>
294.4764

>  <STRUCTURE_ChemicalType>
defined organic

>  <STRUCTURE_TestedForm_DefinedOrganic>
parent

>  <STRUCTURE_Shown>
tested chemical

>  <TestSubstance_ChemicalName>
Methyl linoleate, native

>  <TestSubstance_CASRN>
112-63-0

>  <TestSubstance_Description>
single chemical compound

>  <STRUCTURE_ChemicalName_IUPAC>
methyl (9Z,12Z)-octadeca-9,12-dienoate

>  <STRUCTURE_SMILES>
CCCCC/C=C\C/C=C\CCCCCCCC(OC)=O

>  <STRUCTURE_Parent_SMILES>
CCCCC/C=C\C/C=C\CCCCCCCC(OC)=O

>  <STRUCTURE_InChI>
InChI=1/C19H34O2/c1-3-4-5-6-7-8-9-10-11-12-13-14-15-16-17-18-19(20)21-2/h7-8,10-11H,3-6,9,12-18H2,1-2H3/b8-7-,11-10-

>  <STRUCTURE_InChIKey>
WTTJVINHCBCLGX-NQLNTKRDBF

>  <StudyType>
Carcinogenicity

>  <Endpoint>
TD50; Tumor Target Sites

>  <Species>
rat

>  <ActivityScore_CPDBAS_Rat>
0

>  <TD50_Rat_Note>
no positive results

>  <TargetSites_Rat_Male>
no positive results

>  <ActivityOutcome_CPDBAS_Rat>
inactive

>  <ActivityOutcome_CPDBAS_SingleCellCall>
inactive

>  <ChemicalPage_URL>
http://potency.berkeley.edu/chempages/METHYL%20LINOLEATE,%20NATIVE.html

$$$$



  7  6  0  0  0  0  0  0  0  0999 V2000
    0.0000   -2.3052    0.0000 O   0  0  0  0  0  0  0  0  0  0  0  0
    1.3306   -2.3052    0.0000 C   0  0  0  0  0  0  0  0  0  0  0  0
    1.9941   -1.1508    0.0000 C   0  0  0  0  0  0  0  0  0  0  0  0
    3.3247   -1.1508    0.0000 C   0  0  0  0  0  0  0  0  0  0  0  0
    1.3306    0.0000    0.0000 C   0  0  0  0  0  0  0  0  0  0  0  0
    1.9941   -3.4560    0.0000 O   0  0  0  0  0  0  0  0  0  0  0  0
    3.3247   -3.4560    0.0000 C   0  0  0  0  0  0  0  0  0  0  0  0
  1  2  2  0  0  0  0
  2  3  1  0  0  0  0
  2  6  1  0  0  0  0
  3  4  2  0  0  0  0
  3  5  1  0  0  0  0
  6  7  1  0  0  0  0
M  END
>  <DSSTox_RID>
20844

>  <DSSTox_CID>
844

>  <DSSTox_Generic_SID>
20844

>  <DSSTox_FileID>
884_CPDBAS_v5d

>  <STRUCTURE_Formula>
C5H8O2

>  <STRUCTURE_MolecularWeight>
100.1158

>  <STRUCTURE_ChemicalType>
defined organic

>  <STRUCTURE_TestedForm_DefinedOrganic>
parent

>  <STRUCTURE_Shown>
tested chemical

>  <TestSubstance_ChemicalName>
Methyl methacrylate

>  <TestSubstance_CASRN>
80-62-6

>  <TestSubstance_Description>
single chemical compound

>  <STRUCTURE_ChemicalName_IUPAC>
methyl methacrylate

>  <STRUCTURE_SMILES>
O=C(C(=C)C)OC

>  <STRUCTURE_Parent_SMILES>
O=C(C(=C)C)OC

>  <STRUCTURE_InChI>
InChI=1/C5H8O2/c1-4(2)5(6)7-3/h1H2,2-3H3

>  <STRUCTURE_InChIKey>
VVQNEPGJFQJSBK-UHFFFAOYAN

>  <StudyType>
Carcinogenicity

>  <Endpoint>
TD50; Tumor Target Sites

>  <Species>
rat; mouse; hamster

>  <ActivityOutcome_CPDBAS_Mutagenicity>
inactive

>  <ActivityScore_CPDBAS_Rat>
0

>  <TD50_Rat_Note>
no positive results

>  <TargetSites_Rat_Male>
no positive results

>  <TargetSites_Rat_Female>
no positive results

>  <ActivityOutcome_CPDBAS_Rat>
inactive

>  <ActivityScore_CPDBAS_Mouse>
0

>  <TD50_Mouse_Note>
no positive results

>  <TargetSites_Mouse_Male>
no positive results

>  <TargetSites_Mouse_Female>
no positive results

>  <ActivityOutcome_CPDBAS_Mouse>
inactive

>  <ActivityScore_CPDBAS_Hamster>
0

>  <TD50_Hamster_Note>
no positive results

>  <TargetSites_Hamster_Male>
no positive results

>  <TargetSites_Hamster_Female>
no positive results

>  <ActivityOutcome_CPDBAS_Hamster>
inactive

>  <ActivityOutcome_CPDBAS_SingleCellCall>
inactive

>  <ActivityOutcome_CPDBAS_MultiCellCall>
inactive

>  <ActivityOutcome_CPDBAS_MultiCellCall_Details>
multisex inactive; multispecies inactive

>  <Note_CPDBAS>
Hamster added v3a; TargetSites_Hamster_Male modified v5a; TargetSites_Hamster_BothSexes modified v5a

>  <NTP_TechnicalReport>
TR 314

>  <ChemicalPage_URL>
http://potency.berkeley.edu/chempages/METHYL%20METHACRYLATE.html

$$$$



  6  5  0  0  0  0  0  0  0  0999 V2000
    0.0000   -1.8169    0.0000 C   0  0  0  0  0  0  0  0  0  0  0  0
    1.1503   -1.1537    0.0000 S   0  0  0  0  0  0  0  0  0  0  0  0
    1.8169   -2.3040    0.0000 O   0  0  0  0  0  0  0  0  0  0  0  0
    0.4870    0.0000    0.0000 O   0  0  0  0  0  0  0  0  0  0  0  0
    2.3040   -0.4870    0.0000 O   0  0  0  0  0  0  0  0  0  0  0  0
    3.4542   -1.1537    0.0000 C   0  0  0  0  0  0  0  0  0  0  0  0
  1  2  1  0  0  0  0
  2  3  2  0  0  0  0
  2  4  2  0  0  0  0
  2  5  1  0  0  0  0
  5  6  1  0  0  0  0
M  END
>  <DSSTox_RID>
20845

>  <DSSTox_CID>
845

>  <DSSTox_Generic_SID>
20845

>  <DSSTox_FileID>
885_CPDBAS_v5d

>  <STRUCTURE_Formula>
C2H6O3S

>  <STRUCTURE_MolecularWeight>
110.1322

>  <STRUCTURE_ChemicalType>
defined organic

>  <STRUCTURE_TestedForm_DefinedOrganic>
parent

>  <STRUCTURE_Shown>
tested chemical

>  <TestSubstance_ChemicalName>
Methyl methanesulfonate

>  <TestSubstance_CASRN>
66-27-3

>  <TestSubstance_Description>
single chemical compound

>  <STRUCTURE_ChemicalName_IUPAC>
methyl methanesulfonate

>  <STRUCTURE_SMILES>
CS(=O)(=O)OC

>  <STRUCTURE_Parent_SMILES>
CS(=O)(=O)OC

>  <STRUCTURE_InChI>
InChI=1/C2H6O3S/c1-5-6(2,3)4/h1-2H3

>  <STRUCTURE_InChIKey>
MBABOKRGFJTBAE-UHFFFAOYAK

>  <StudyType>
Carcinogenicity

>  <Endpoint>
TD50; Tumor Target Sites

>  <Species>
mouse

>  <ActivityOutcome_CPDBAS_Mutagenicity>
active

>  <TD50_Mouse_mg>
31.8

>  <TD50_Mouse_mmol>
0.289

>  <ActivityScore_CPDBAS_Mouse>
34

>  <TargetSites_Mouse_Male>
hematopoietic system; lung

>  <ActivityOutcome_CPDBAS_Mouse>
active

>  <ActivityOutcome_CPDBAS_SingleCellCall>
active

>  <ActivityOutcome_CPDBAS_MultiCellCall>
active

>  <ActivityOutcome_CPDBAS_MultiCellCall_Details>
multisite active

>  <ChemicalPage_URL>
http://potency.berkeley.edu/chempages/METHYL%20METHANESULFONATE.html

$$$$



 10  9  0  0  0  0  0  0  0  0999 V2000
    3.4535    0.0000    0.0000 N   0  0  0  0  0  0  0  0  0  0  0  0
    3.4535   -1.3261    0.0000 C   0  0  0  0  0  0  0  0  0  0  0  0
    4.6069   -1.9961    0.0000 N   0  0  0  0  0  0  0  0  0  0  0  0
    5.7535   -1.3261    0.0000 N   0  0  0  0  0  0  0  0  0  0  0  0
    6.9070   -1.9961    0.0000 O   0  0  0  0  0  0  0  0  0  0  0  0
    4.6069   -3.3223    0.0000 C   0  0  0  0  0  0  0  0  0  0  0  0
    2.3000   -1.9961    0.0000 N   0  0  0  0  0  0  0  0  0  0  0  0
    1.1535   -1.3261    0.0000 N   0  3  0  0  0  0  0  0  0  0  0  0
    1.1535    0.0000    0.0000 O   0  0  0  0  0  0  0  0  0  0  0  0
    0.0000   -1.9961    0.0000 O   0  5  0  0  0  0  0  0  0  0  0  0
  1  2  2  0  0  0  0
  2  3  1  0  0  0  0
  2  7  1  0  0  0  0
  3  4  1  0  0  0  0
  3  6  1  0  0  0  0
  4  5  2  0  0  0  0
  7  8  1  0  0  0  0
  8  9  2  0  0  0  0
  8 10  1  0  0  0  0
M  END
>  <DSSTox_RID>
20846

>  <DSSTox_CID>
846

>  <DSSTox_Generic_SID>
20846

>  <DSSTox_FileID>
886_CPDBAS_v5d

>  <STRUCTURE_Formula>
C2H5N5O3

>  <STRUCTURE_MolecularWeight>
147.0928

>  <STRUCTURE_ChemicalType>
defined organic

>  <STRUCTURE_TestedForm_DefinedOrganic>
parent

>  <STRUCTURE_Shown>
tested chemical

>  <TestSubstance_ChemicalName>
N-Methyl-N'-nitro-N-nitrosoguanidine

>  <TestSubstance_CASRN>
70-25-7

>  <TestSubstance_Description>
single chemical compound

>  <STRUCTURE_ChemicalName_IUPAC>
1-methyl-3-nitro-1-nitrosoguanidine

>  <STRUCTURE_SMILES>
N=C(N(N=O)C)N[N+](=O)[O-]

>  <STRUCTURE_Parent_SMILES>
N=C(N(N=O)C)N[N+](=O)[O-]

>  <STRUCTURE_InChI>
InChI=1/C2H5N5O3/c1-6(5-8)2(3)4-7(9)10/h1H3,(H2,3,4)/f/h3-4H

>  <STRUCTURE_InChIKey>
VZUNGTLZRAYYDE-ICLDPWEWCI

>  <StudyType>
Carcinogenicity

>  <Endpoint>
TD50; Tumor Target Sites

>  <Species>
rat; mouse; rhesus

>  <ActivityOutcome_CPDBAS_Mutagenicity>
active

>  <TD50_Rat_mg>
0.803

>  <TD50_Rat_mmol>
0.00546

>  <ActivityScore_CPDBAS_Rat>
49

>  <TD50_Rat_Note>
TD50 is harmonic mean of more than one positive test; greater than ten-fold variation among TD50 values for positive results

>  <TargetSites_Rat_Male>
esophagus; small intestine; stomach

>  <TargetSites_Rat_Female>
small intestine; stomach

>  <ActivityOutcome_CPDBAS_Rat>
active

>  <TD50_Mouse_mg>
2.03

>  <TD50_Mouse_mmol>
0.0138

>  <ActivityScore_CPDBAS_Mouse>
49

>  <TargetSites_Mouse_Female>
small intestine

>  <ActivityOutcome_CPDBAS_Mouse>
active

>  <TargetSites_Rhesus>
no positive results

>  <TD50_Dog_Primates_Note>
no positive results for Rhesus

>  <ActivityOutcome_CPDBAS_Dog_Primates>
inactive

>  <ActivityOutcome_CPDBAS_SingleCellCall>
active

>  <ActivityOutcome_CPDBAS_MultiCellCall>
active

>  <ActivityOutcome_CPDBAS_MultiCellCall_Details>
multisite active; multisex active; multispecies active

>  <Note_CPDBAS>
TD50_Mouse modified v3a; TargetSites_Mouse modified v3a

>  <ChemicalPage_URL>
http://potency.berkeley.edu/chempages/N-METHYL-N'-NITRO-N-NITROSOGUANIDINE.html

$$$$



 20 22  0  0  0  0  0  0  0  0999 V2000
    4.6527   -4.6048    0.0000 O   0  0  0  0  0  0  0  0  0  0  0  0
    3.9903   -3.4556    0.0000 C   0  0  0  0  0  0  0  0  0  0  0  0
    4.6527   -2.2984    0.0000 C   0  0  0  0  0  0  0  0  0  0  0  0
    5.9855   -2.2984    0.0000 C   0  0  0  0  0  0  0  0  0  0  0  0
    6.6479   -1.1492    0.0000 C   0  0  0  0  0  0  0  0  0  0  0  0
    5.9855    0.0000    0.0000 C   0  0  0  0  0  0  0  0  0  0  0  0
    4.6527    0.0000    0.0000 C   0  0  0  0  0  0  0  0  0  0  0  0
    3.9903   -1.1492    0.0000 C   0  0  0  0  0  0  0  0  0  0  0  0
    2.6576   -1.1492    0.0000 C   0  0  0  0  0  0  0  0  0  0  0  0
    1.9952    0.0000    0.0000 O   0  0  0  0  0  0  0  0  0  0  0  0
    1.9952   -2.2984    0.0000 C   0  0  0  0  0  0  0  0  0  0  0  0
    2.6576   -3.4556    0.0000 C   0  0  0  0  0  0  0  0  0  0  0  0
    1.9952   -4.6048    0.0000 C   0  0  0  0  0  0  0  0  0  0  0  0
    0.6624   -4.6048    0.0000 C   0  0  0  0  0  0  0  0  0  0  0  0
    0.0000   -3.4556    0.0000 C   0  0  0  0  0  0  0  0  0  0  0  0
    0.6624   -2.2984    0.0000 C   0  0  0  0  0  0  0  0  0  0  0  0
    7.9806   -1.1492    0.0000 C   0  0  0  0  0  0  0  0  0  0  0  0
    6.6479   -3.4556    0.0000 N   0  3  0  0  0  0  0  0  0  0  0  0
    7.9806   -3.4556    0.0000 O   0  0  0  0  0  0  0  0  0  0  0  0
    5.9855   -4.6048    0.0000 O   0  5  0  0  0  0  0  0  0  0  0  0
  1  2  2  0  0  0  0
  2  3  1  0  0  0  0
  2 12  1  0  0  0  0
  3  4  2  0  0  0  0
  3  8  1  0  0  0  0
  4  5  1  0  0  0  0
  4 18  1  0  0  0  0
  5  6  2  0  0  0  0
  5 17  1  0  0  0  0
  6  7  1  0  0  0  0
  7  8  2  0  0  0  0
  8  9  1  0  0  0  0
  9 10  2  0  0  0  0
  9 11  1  0  0  0  0
 11 12  2  0  0  0  0
 11 16  1  0  0  0  0
 12 13  1  0  0  0  0
 13 14  2  0  0  0  0
 14 15  1  0  0  0  0
 15 16  2  0  0  0  0
 18 19  2  0  0  0  0
 18 20  1  0  0  0  0
M  END
>  <DSSTox_RID>
20847

>  <DSSTox_CID>
847

>  <DSSTox_Generic_SID>
20847

>  <DSSTox_FileID>
887_CPDBAS_v5d

>  <STRUCTURE_Formula>
C15H9NO4

>  <STRUCTURE_MolecularWeight>
267.2363

>  <STRUCTURE_ChemicalType>
defined organic

>  <STRUCTURE_TestedForm_DefinedOrganic>
parent

>  <STRUCTURE_Shown>
tested chemical

>  <TestSubstance_ChemicalName>
2-Methyl-1-nitroanthraquinone

>  <TestSubstance_CASRN>
129-15-7

>  <TestSubstance_Description>
single chemical compound

>  <STRUCTURE_ChemicalName_IUPAC>
2-methyl-1-nitro-9,10-anthraquinone

>  <STRUCTURE_SMILES>
O=C1C2=C(C(=CC=C2C(=O)C3=C1C=CC=C3)C)[N+](=O)[O-]

>  <STRUCTURE_Parent_SMILES>
O=C1C2=C(C(=CC=C2C(=O)C3=C1C=CC=C3)C)[N+](=O)[O-]

>  <STRUCTURE_InChI>
InChI=1/C15H9NO4/c1-8-6-7-11-12(13(8)16(19)20)15(18)10-5-3-2-4-9(10)14(11)17/h2-7H,1H3

>  <STRUCTURE_InChIKey>
FYXKXZFTZBYYNP-UHFFFAOYAD

>  <StudyType>
Carcinogenicity

>  <Endpoint>
TD50; Tumor Target Sites

>  <Species>
rat; mouse

>  <ActivityOutcome_CPDBAS_Mutagenicity>
active

>  <TD50_Rat_mg>
84.8

>  <TD50_Rat_mmol>
0.317

>  <ActivityScore_CPDBAS_Rat>
31

>  <TD50_Rat_Note>
TD50 is harmonic mean of more than one positive test

>  <TargetSites_Rat_Male>
liver

>  <TargetSites_Rat_Female>
liver

>  <ActivityOutcome_CPDBAS_Rat>
active

>  <TD50_Mouse_mg>
1.56

>  <TD50_Mouse_mmol>
0.00584

>  <ActivityScore_CPDBAS_Mouse>
53

>  <TD50_Mouse_Note>
TD50 is harmonic mean of more than one positive test

>  <TargetSites_Mouse_Male>
vascular system

>  <TargetSites_Mouse_Female>
vascular system

>  <ActivityOutcome_CPDBAS_Mouse>
active

>  <ActivityOutcome_CPDBAS_SingleCellCall>
active

>  <ActivityOutcome_CPDBAS_MultiCellCall>
active

>  <ActivityOutcome_CPDBAS_MultiCellCall_Details>
multisite active; multisex active; multispecies active

>  <NTP_TechnicalReport>
TR 29

>  <ChemicalPage_URL>
http://potency.berkeley.edu/chempages/2-METHYL-1-NITROANTHRAQUINONE.html

$$$$



 17 18  0  0  0  0  0  0  0  0999 V2000
    8.4390   -1.2718    0.0000 C   0  0  0  0  0  0  0  0  0  0  0  0
    9.7000   -1.6813    0.0000 N   0  0  0  0  0  0  0  0  0  0  0  0
    9.7000   -3.0070    0.0000 C   0  0  3  0  0  0  0  0  0  0  0  0
    8.4390   -3.4166    0.0000 C   0  0  0  0  0  0  0  0  0  0  0  0
    7.6522   -2.3388    0.0000 N   0  0  0  0  0  0  0  0  0  0  0  0
    6.3265   -2.3388    0.0000 N   0  0  0  0  0  0  0  0  0  0  0  0
    5.6583   -3.4920    0.0000 C   0  0  0  0  0  0  0  0  0  0  0  0
    4.3327   -3.4920    0.0000 C   0  0  0  0  0  0  0  0  0  0  0  0
    3.5567   -4.5698    0.0000 C   0  0  0  0  0  0  0  0  0  0  0  0
    2.2849   -4.1602    0.0000 C   0  0  0  0  0  0  0  0  0  0  0  0
    2.2849   -2.8346    0.0000 C   0  0  0  0  0  0  0  0  0  0  0  0
    3.5567   -2.4142    0.0000 O   0  0  0  0  0  0  0  0  0  0  0  0
    1.2179   -2.0478    0.0000 N   0  3  0  0  0  0  0  0  0  0  0  0
    0.0000   -2.5867    0.0000 O   0  0  0  0  0  0  0  0  0  0  0  0
    1.3580   -0.7221    0.0000 O   0  5  0  0  0  0  0  0  0  0  0  0
   10.7778   -3.7938    0.0000 C   0  0  0  0  0  0  0  0  0  0  0  0
    8.0294    0.0000    0.0000 O   0  0  0  0  0  0  0  0  0  0  0  0
  1  2  1  0  0  0  0
  1  5  1  0  0  0  0
  1 17  2  0  0  0  0
  2  3  1  0  0  0  0
  3  4  1  0  0  0  0
  3 16  1  0  0  0  0
  4  5  1  0  0  0  0
  5  6  1  0  0  0  0
  6  7  2  0  0  0  0
  7  8  1  0  0  0  0
  8  9  2  0  0  0  0
  8 12  1  0  0  0  0
  9 10  1  0  0  0  0
 10 11  2  0  0  0  0
 11 12  1  0  0  0  0
 11 13  1  0  0  0  0
 13 14  2  0  0  0  0
 13 15  1  0  0  0  0
M  END
>  <DSSTox_RID>
20848

>  <DSSTox_CID>
848

>  <DSSTox_Generic_SID>
20848

>  <DSSTox_FileID>
888_CPDBAS_v5d

>  <STRUCTURE_Formula>
C9H10N4O4

>  <STRUCTURE_MolecularWeight>
238.2024

>  <STRUCTURE_ChemicalType>
defined organic

>  <STRUCTURE_TestedForm_DefinedOrganic>
parent

>  <STRUCTURE_Shown>
tested chemical

>  <TestSubstance_ChemicalName>
4-Methyl-1-[(5-nitrofurfurylidene)amino]-2-imidazolidinone

>  <TestSubstance_CASRN>
21638-36-8

>  <TestSubstance_Description>
single chemical compound

>  <ChemicalNote>
stereochem

>  <STRUCTURE_ChemicalName_IUPAC>
4-methyl-1-{[(1E)-(5-nitrofuran-2-yl)methylidene]amino}imidazolidin-2-one

>  <STRUCTURE_SMILES>
C1(NC(CN1/N=C/C2=CC=C(O2)[N+](=O)[O-])C)=O

>  <STRUCTURE_Parent_SMILES>
C1(NC(CN1/N=C/C2=CC=C(O2)[N+](=O)[O-])C)=O

>  <STRUCTURE_InChI>
InChI=1/C9H10N4O4/c1-6-5-12(9(14)11-6)10-4-7-2-3-8(17-7)13(15)16/h2-4,6H,5H2,1H3,(H,11,14)/b10-4+/f/h11H

>  <STRUCTURE_InChIKey>
BJUPUKIYTMVLCW-WAXNLUERDS

>  <StudyType>
Carcinogenicity

>  <Endpoint>
TD50; Tumor Target Sites

>  <Species>
rat

>  <ActivityOutcome_CPDBAS_Mutagenicity>
active

>  <TD50_Rat_mg>
5.34

>  <TD50_Rat_mmol>
0.0224

>  <ActivityScore_CPDBAS_Rat>
43

>  <TargetSites_Rat_Female>
mammary gland

>  <ActivityOutcome_CPDBAS_Rat>
active

>  <ActivityOutcome_CPDBAS_SingleCellCall>
active

>  <ChemicalPage_URL>
http://potency.berkeley.edu/chempages/4-METHYL-1-[(5-NITROFURFURYLIDENE)AMINO]-2-IMIDAZO.html

$$$$



 12 12  0  0  0  0  0  0  0  0999 V2000
    3.9920   -3.4593    0.0000 C   0  0  0  0  0  0  0  0  0  0  0  0
    2.6573   -3.4593    0.0000 C   0  0  0  0  0  0  0  0  0  0  0  0
    1.9930   -4.6084    0.0000 C   0  0  0  0  0  0  0  0  0  0  0  0
    0.6643   -4.6084    0.0000 C   0  0  0  0  0  0  0  0  0  0  0  0
    0.0000   -3.4593    0.0000 C   0  0  0  0  0  0  0  0  0  0  0  0
    0.6643   -2.3042    0.0000 C   0  0  0  0  0  0  0  0  0  0  0  0
    1.9930   -2.3042    0.0000 C   0  0  0  0  0  0  0  0  0  0  0  0
    4.6563   -4.6084    0.0000 O   0  0  0  0  0  0  0  0  0  0  0  0
    4.6563   -2.3042    0.0000 N   0  0  0  0  0  0  0  0  0  0  0  0
    3.9920   -1.1551    0.0000 N   0  0  0  0  0  0  0  0  0  0  0  0
    4.6563    0.0000    0.0000 O   0  0  0  0  0  0  0  0  0  0  0  0
    5.9850   -2.3042    0.0000 C   0  0  0  0  0  0  0  0  0  0  0  0
  1  2  1  0  0  0  0
  1  8  2  0  0  0  0
  1  9  1  0  0  0  0
  2  3  1  0  0  0  0
  2  7  2  0  0  0  0
  3  4  2  0  0  0  0
  4  5  1  0  0  0  0
  5  6  2  0  0  0  0
  6  7  1  0  0  0  0
  9 10  1  0  0  0  0
  9 12  1  0  0  0  0
 10 11  2  0  0  0  0
M  END
>  <DSSTox_RID>
20850

>  <DSSTox_CID>
850

>  <DSSTox_Generic_SID>
20850

>  <DSSTox_FileID>
890_CPDBAS_v5d

>  <STRUCTURE_Formula>
C8H8N2O2

>  <STRUCTURE_MolecularWeight>
164.1634

>  <STRUCTURE_ChemicalType>
defined organic

>  <STRUCTURE_TestedForm_DefinedOrganic>
parent

>  <STRUCTURE_Shown>
tested chemical

>  <TestSubstance_ChemicalName>
N-Methyl-N-nitrosobenzamide

>  <TestSubstance_CASRN>
63412-06-6

>  <TestSubstance_Description>
single chemical compound

>  <STRUCTURE_ChemicalName_IUPAC>
N-methyl-N-nitrosobenzamide

>  <STRUCTURE_SMILES>
C(C1C=CC=CC=1)(=O)N(N=O)C

>  <STRUCTURE_Parent_SMILES>
C(C1C=CC=CC=1)(=O)N(N=O)C

>  <STRUCTURE_InChI>
InChI=1/C8H8N2O2/c1-10(9-12)8(11)7-5-3-2-4-6-7/h2-6H,1H3

>  <STRUCTURE_InChIKey>
SLTNUKIKMOOUID-UHFFFAOYAJ

>  <StudyType>
Carcinogenicity

>  <Endpoint>
TD50; Tumor Target Sites

>  <Species>
rat

>  <ActivityOutcome_CPDBAS_Mutagenicity>
active

>  <TD50_Rat_mg>
3.23

>  <TD50_Rat_mmol>
0.0197

>  <ActivityScore_CPDBAS_Rat>
43

>  <TD50_Rat_Note>
TD50 is harmonic mean of more than one positive test

>  <TargetSites_Rat_Male>
stomach

>  <TargetSites_Rat_Female>
all tumor bearing animals

>  <ActivityOutcome_CPDBAS_Rat>
active

>  <ActivityOutcome_CPDBAS_SingleCellCall>
active

>  <ActivityOutcome_CPDBAS_MultiCellCall>
active

>  <ActivityOutcome_CPDBAS_MultiCellCall_Details>
multisite active; multisex active

>  <ChemicalPage_URL>
http://potency.berkeley.edu/chempages/N-METHYL-N-NITROSOBENZAMIDE.html

$$$$



 15 14  0  0  1  0  0  0  0  0999 V2000
    3.4524   -3.3258    0.0000 O   0  0  0  0  0  0  0  0  0  0  0  0
    8.0555   -2.0024    0.0000 C   0  0  0  0  0  0  0  0  0  0  0  0
   10.3571   -2.0024    0.0000 C   0  0  0  0  0  0  0  0  0  0  0  0
    6.9047   -1.3349    0.0000 C   0  0  0  0  0  0  0  0  0  0  0  0
    9.2063   -1.3349    0.0000 C   0  0  1  0  0  0  0  0  0  0  0  0
   11.5078   -1.3349    0.0000 O   0  0  0  0  0  0  0  0  0  0  0  0
    9.2063    0.0000    0.0000 N   0  0  0  0  0  0  0  0  0  0  0  0
    5.7539   -2.0024    0.0000 C   0  0  0  0  0  0  0  0  0  0  0  0
    4.6031   -1.3349    0.0000 N   0  0  0  0  0  0  0  0  0  0  0  0
   10.3571   -3.3258    0.0000 O   0  0  0  0  0  0  0  0  0  0  0  0
    3.4524   -2.0024    0.0000 C   0  0  0  0  0  0  0  0  0  0  0  0
    2.3016   -1.3349    0.0000 N   0  0  0  0  0  0  0  0  0  0  0  0
    1.1508   -2.0024    0.0000 N   0  0  0  0  0  0  0  0  0  0  0  0
    0.0000   -1.3349    0.0000 O   0  0  0  0  0  0  0  0  0  0  0  0
    2.3016    0.0000    0.0000 C   0  0  0  0  0  0  0  0  0  0  0  0
  1 11  2  0  0  0  0
  2  4  1  0  0  0  0
  2  5  1  0  0  0  0
  3  5  1  0  0  0  0
  3  6  1  0  0  0  0
  3 10  2  0  0  0  0
  4  8  1  0  0  0  0
  5  7  1  6  0  0  0
  8  9  1  0  0  0  0
  9 11  1  0  0  0  0
 11 12  1  0  0  0  0
 12 13  1  0  0  0  0
 12 15  1  0  0  0  0
 13 14  2  0  0  0  0
M  END
>  <DSSTox_RID>
20851

>  <DSSTox_CID>
851

>  <DSSTox_Generic_SID>
20851

>  <DSSTox_FileID>
891_CPDBAS_v5d

>  <STRUCTURE_Formula>
C7H14N4O4

>  <STRUCTURE_MolecularWeight>
218.212

>  <STRUCTURE_ChemicalType>
defined organic

>  <STRUCTURE_TestedForm_DefinedOrganic>
parent

>  <STRUCTURE_Shown>
tested chemical

>  <TestSubstance_ChemicalName>
N-(N-Methyl-N-nitrosocarbamoyl)-l-ornithine

>  <TestSubstance_CASRN>
63642-17-1

>  <TestSubstance_Description>
single chemical compound

>  <ChemicalNote>
stereochem

>  <STRUCTURE_ChemicalName_IUPAC>
N~5~-{[methyl(nitroso)amino]carbonyl}-L-ornithine

>  <STRUCTURE_SMILES>
CN(N=O)C(=O)NCCC[C@H](N)C(O)=O

>  <STRUCTURE_Parent_SMILES>
CN(N=O)C(=O)NCCC[C@H](N)C(O)=O

>  <STRUCTURE_InChI>
InChI=1/C7H14N4O4/c1-11(10-15)7(14)9-4-2-3-5(8)6(12)13/h5H,2-4,8H2,1H3,(H,9,14)(H,12,13)/t5-/m0/s1/f/h9,12H

>  <STRUCTURE_InChIKey>
QEQYAQFYVFRGQD-MWAWBBTFDZ

>  <StudyType>
Carcinogenicity

>  <Endpoint>
TD50; Tumor Target Sites

>  <Species>
rat

>  <TD50_Rat_mg>
0.787

>  <TD50_Rat_mmol>
0.00361

>  <ActivityScore_CPDBAS_Rat>
51

>  <TD50_Rat_Note>
positive test results only by intraperitoneal or intravenous injection; TD50 is harmonic mean of more than one positive test

>  <TargetSites_Rat_Male>
ear Zymbals gland; kidney; pancreas; skin

>  <TargetSites_Rat_Female>
kidney; mammary gland; pancreas; skin

>  <ActivityOutcome_CPDBAS_Rat>
active

>  <ActivityOutcome_CPDBAS_SingleCellCall>
active

>  <ActivityOutcome_CPDBAS_MultiCellCall>
active

>  <ActivityOutcome_CPDBAS_MultiCellCall_Details>
multisite active; multisex active

>  <ChemicalPage_URL>
http://potency.berkeley.edu/chempages/N-(N-METHYL-N-NITROSOCARBAMOYL)-L-ORNITHINE.html

$$$$



  9  9  0  0  1  0  0  0  0  0999 V2000
    1.9976   -3.4550    0.0000 C   0  0  0  0  0  0  0  0  0  0  0  0
    0.6659   -3.4550    0.0000 C   0  0  0  0  0  0  0  0  0  0  0  0
    0.0000   -2.3049    0.0000 C   0  0  0  0  0  0  0  0  0  0  0  0
    0.6659   -1.1501    0.0000 C   0  0  0  0  0  0  0  0  0  0  0  0
    1.9976   -1.1501    0.0000 C   0  0  2  0  0  0  0  0  0  0  0  0
    2.6588   -2.3049    0.0000 N   0  0  0  0  0  0  0  0  0  0  0  0
    3.9905   -2.3049    0.0000 N   0  0  0  0  0  0  0  0  0  0  0  0
    4.6563   -3.4550    0.0000 O   0  0  0  0  0  0  0  0  0  0  0  0
    2.6588    0.0000    0.0000 C   0  0  0  0  0  0  0  0  0  0  0  0
  1  2  1  0  0  0  0
  1  6  1  0  0  0  0
  2  3  1  0  0  0  0
  3  4  1  0  0  0  0
  4  5  1  0  0  0  0
  5  6  1  0  0  0  0
  5  9  1  1  0  0  0
  6  7  1  0  0  0  0
  7  8  2  0  0  0  0
M  END
>  <DSSTox_RID>
20852

>  <DSSTox_CID>
852

>  <DSSTox_Generic_SID>
20852

>  <DSSTox_FileID>
892_CPDBAS_v5d

>  <STRUCTURE_Formula>
C6H12N2O

>  <STRUCTURE_MolecularWeight>
128.1736

>  <STRUCTURE_ChemicalType>
defined organic

>  <STRUCTURE_TestedForm_DefinedOrganic>
parent

>  <STRUCTURE_Shown>
tested chemical

>  <TestSubstance_ChemicalName>
R(-)-2-Methyl-N-nitrosopiperidine

>  <TestSubstance_CASRN>
14026-03-0

>  <TestSubstance_Description>
single chemical compound

>  <ChemicalNote>
stereochem

>  <STRUCTURE_ChemicalName_IUPAC>
(2R)-2-methyl-1-nitrosopiperidine

>  <STRUCTURE_SMILES>
C1CCC[C@H](N1N=O)C

>  <STRUCTURE_Parent_SMILES>
C1CCC[C@H](N1N=O)C

>  <STRUCTURE_InChI>
InChI=1/C6H12N2O/c1-6-4-2-3-5-8(6)7-9/h6H,2-5H2,1H3/t6-/m1/s1

>  <STRUCTURE_InChIKey>
SSPVLHFEMWOTGD-ZCFIWIBFBX

>  <StudyType>
Carcinogenicity

>  <Endpoint>
TD50; Tumor Target Sites

>  <Species>
rat

>  <TD50_Rat_mg>
20.4

>  <TD50_Rat_mmol>
0.159

>  <ActivityScore_CPDBAS_Rat>
34

>  <TargetSites_Rat_BothSexes>
nervous system

>  <ActivityOutcome_CPDBAS_Rat>
active

>  <ActivityOutcome_CPDBAS_SingleCellCall>
active

>  <Note_CPDBAS>
same 2D structure [36702-44-0]

>  <ChemicalPage_URL>
http://potency.berkeley.edu/chempages/R(-)-2-METHYL-N-NITROSOPIPERIDINE.html

$$$$



  9  9  0  0  1  0  0  0  0  0999 V2000
    1.9976   -3.4550    0.0000 C   0  0  0  0  0  0  0  0  0  0  0  0
    0.6659   -3.4550    0.0000 C   0  0  0  0  0  0  0  0  0  0  0  0
    0.0000   -2.3049    0.0000 C   0  0  0  0  0  0  0  0  0  0  0  0
    0.6659   -1.1501    0.0000 C   0  0  0  0  0  0  0  0  0  0  0  0
    1.9976   -1.1501    0.0000 C   0  0  1  0  0  0  0  0  0  0  0  0
    2.6588   -2.3049    0.0000 N   0  0  0  0  0  0  0  0  0  0  0  0
    3.9905   -2.3049    0.0000 N   0  0  0  0  0  0  0  0  0  0  0  0
    4.6563   -3.4550    0.0000 O   0  0  0  0  0  0  0  0  0  0  0  0
    2.6588    0.0000    0.0000 C   0  0  0  0  0  0  0  0  0  0  0  0
  1  2  1  0  0  0  0
  1  6  1  0  0  0  0
  2  3  1  0  0  0  0
  3  4  1  0  0  0  0
  4  5  1  0  0  0  0
  5  6  1  0  0  0  0
  5  9  1  6  0  0  0
  6  7  1  0  0  0  0
  7  8  2  0  0  0  0
M  END
>  <DSSTox_RID>
20853

>  <DSSTox_CID>
853

>  <DSSTox_Generic_SID>
20853

>  <DSSTox_FileID>
893_CPDBAS_v5d

>  <STRUCTURE_Formula>
C6H12N2O

>  <STRUCTURE_MolecularWeight>
128.1736

>  <STRUCTURE_ChemicalType>
defined organic

>  <STRUCTURE_TestedForm_DefinedOrganic>
parent

>  <STRUCTURE_Shown>
tested chemical

>  <TestSubstance_ChemicalName>
S(+)-2-Methyl-N-nitrosopiperidine

>  <TestSubstance_CASRN>
36702-44-0

>  <TestSubstance_Description>
single chemical compound

>  <ChemicalNote>
stereochem

>  <STRUCTURE_ChemicalName_IUPAC>
(2S)-2-methyl-1-nitrosopiperidine

>  <STRUCTURE_SMILES>
C1CCC[C@@H](N1N=O)C

>  <STRUCTURE_Parent_SMILES>
C1CCC[C@@H](N1N=O)C

>  <STRUCTURE_InChI>
InChI=1/C6H12N2O/c1-6-4-2-3-5-8(6)7-9/h6H,2-5H2,1H3/t6-/m0/s1

>  <STRUCTURE_InChIKey>
SSPVLHFEMWOTGD-LURJTMIEBV

>  <StudyType>
Carcinogenicity

>  <Endpoint>
TD50; Tumor Target Sites

>  <Species>
rat

>  <TD50_Rat_mg>
13.2

>  <TD50_Rat_mmol>
0.103

>  <ActivityScore_CPDBAS_Rat>
36

>  <TargetSites_Rat_BothSexes>
nervous system

>  <ActivityOutcome_CPDBAS_Rat>
active

>  <ActivityOutcome_CPDBAS_SingleCellCall>
active

>  <Note_CPDBAS>
same 2D structure [14026-03-0]

>  <ChemicalPage_URL>
http://potency.berkeley.edu/chempages/S(+)-2-METHYL-N-NITROSOPIPERIDINE.html

$$$$



 22 21  0  0  0  0  0  0  0  0999 V2000
   17.2795   -5.9934    0.0000 O   0  0  0  0  0  0  0  0  0  0  0  0
   17.2795   -4.6657    0.0000 C   0  0  0  0  0  0  0  0  0  0  0  0
   16.1361   -4.0018    0.0000 C   0  0  0  0  0  0  0  0  0  0  0  0
   14.9928   -4.6657    0.0000 C   0  0  0  0  0  0  0  0  0  0  0  0
   13.8310   -4.0018    0.0000 C   0  0  0  0  0  0  0  0  0  0  0  0
   12.6692   -4.6657    0.0000 C   0  0  0  0  0  0  0  0  0  0  0  0
   11.5258   -4.0018    0.0000 C   0  0  0  0  0  0  0  0  0  0  0  0
   10.3640   -4.6657    0.0000 C   0  0  0  0  0  0  0  0  0  0  0  0
    9.2207   -4.0018    0.0000 C   0  0  0  0  0  0  0  0  0  0  0  0
    8.0589   -4.6657    0.0000 C   0  0  0  0  0  0  0  0  0  0  0  0
    6.9155   -4.0018    0.0000 C   0  0  0  0  0  0  0  0  0  0  0  0
    5.7721   -4.6657    0.0000 C   0  0  0  0  0  0  0  0  0  0  0  0
    4.6103   -4.0018    0.0000 C   0  0  0  0  0  0  0  0  0  0  0  0
    3.4485   -4.6657    0.0000 C   0  0  0  0  0  0  0  0  0  0  0  0
    2.3052   -4.0018    0.0000 C   0  0  0  0  0  0  0  0  0  0  0  0
    2.3052   -2.6740    0.0000 C   0  0  0  0  0  0  0  0  0  0  0  0
    1.1434   -1.9917    0.0000 C   0  0  0  0  0  0  0  0  0  0  0  0
    1.1434   -0.6639    0.0000 C   0  0  0  0  0  0  0  0  0  0  0  0
    0.0000    0.0000    0.0000 C   0  0  0  0  0  0  0  0  0  0  0  0
    4.6103   -2.6740    0.0000 O   0  0  0  0  0  0  0  0  0  0  0  0
   18.4413   -4.0018    0.0000 O   0  0  0  0  0  0  0  0  0  0  0  0
   18.4413   -2.6740    0.0000 C   0  0  0  0  0  0  0  0  0  0  0  0
  1  2  2  0  0  0  0
  2  3  1  0  0  0  0
  2 21  1  0  0  0  0
  3  4  1  0  0  0  0
  4  5  1  0  0  0  0
  5  6  1  0  0  0  0
  6  7  1  0  0  0  0
  7  8  1  0  0  0  0
  8  9  1  0  0  0  0
  9 10  1  0  0  0  0
 10 11  1  0  0  0  0
 11 12  2  0  0  0  0
 12 13  1  0  0  0  0
 13 14  1  0  0  0  0
 13 20  2  0  0  0  0
 14 15  1  0  0  0  0
 15 16  1  0  0  0  0
 16 17  1  0  0  0  0
 17 18  1  0  0  0  0
 18 19  1  0  0  0  0
 21 22  1  0  0  0  0
M  END
>  <DSSTox_RID>
20854

>  <DSSTox_CID>
854

>  <DSSTox_Generic_SID>
20854

>  <DSSTox_FileID>
894_CPDBAS_v5d

>  <STRUCTURE_Formula>
C19H34O3

>  <STRUCTURE_MolecularWeight>
310.4758

>  <STRUCTURE_ChemicalType>
defined organic

>  <STRUCTURE_TestedForm_DefinedOrganic>
parent

>  <STRUCTURE_Shown>
tested chemical

>  <TestSubstance_ChemicalName>
Methyl 12-oxo-trans-10-octadecenoate

>  <TestSubstance_CASRN>
21308-79-2

>  <TestSubstance_Description>
single chemical compound

>  <ChemicalNote>
stereochem

>  <STRUCTURE_ChemicalName_IUPAC>
methyl (10E)-12-oxooctadec-10-enoate

>  <STRUCTURE_SMILES>
O=C(CCCCCCCC/C=C/C(CCCCCC)=O)OC

>  <STRUCTURE_Parent_SMILES>
O=C(CCCCCCCC/C=C/C(CCCCCC)=O)OC

>  <STRUCTURE_InChI>
InChI=1/C19H34O3/c1-3-4-5-12-15-18(20)16-13-10-8-6-7-9-11-14-17-19(21)22-2/h13,16H,3-12,14-15,17H2,1-2H3/b16-13+

>  <STRUCTURE_InChIKey>
OHJIOGJOUIOUTD-DTQAZKPQBF

>  <StudyType>
Carcinogenicity

>  <Endpoint>
TD50; Tumor Target Sites

>  <Species>
mouse

>  <ActivityScore_CPDBAS_Mouse>
0

>  <TargetSites_Mouse_BothSexes>
no positive results

>  <ActivityOutcome_CPDBAS_Mouse>
inactive

>  <ActivityOutcome_CPDBAS_SingleCellCall>
inactive

>  <ChemicalPage_URL>
http://potency.berkeley.edu/chempages/METHYL%2012-OXO-trans-10-OCTADECENOATE.html

$$$$



 16 16  0  0  0  0  0  0  0  0999 V2000
    5.4978   -2.9728    0.0000 S   0  0  0  0  0  0  0  0  0  0  0  0
    6.6529   -2.3012    0.0000 P   0  0  0  0  0  0  0  0  0  0  0  0
    5.9813   -1.1551    0.0000 O   0  0  0  0  0  0  0  0  0  0  0  0
    4.6561   -1.1551    0.0000 C   0  0  0  0  0  0  0  0  0  0  0  0
    3.9935   -2.3012    0.0000 C   0  0  0  0  0  0  0  0  0  0  0  0
    2.6594   -2.3012    0.0000 C   0  0  0  0  0  0  0  0  0  0  0  0
    1.9968   -1.1551    0.0000 C   0  0  0  0  0  0  0  0  0  0  0  0
    2.6594    0.0000    0.0000 C   0  0  0  0  0  0  0  0  0  0  0  0
    3.9935    0.0000    0.0000 C   0  0  0  0  0  0  0  0  0  0  0  0
    0.6626   -1.1551    0.0000 N   0  3  0  0  0  0  0  0  0  0  0  0
    0.0000   -2.3012    0.0000 O   0  0  0  0  0  0  0  0  0  0  0  0
    0.0000    0.0000    0.0000 O   0  5  0  0  0  0  0  0  0  0  0  0
    7.7990   -1.6386    0.0000 O   0  0  0  0  0  0  0  0  0  0  0  0
    8.9541   -2.3012    0.0000 C   0  0  0  0  0  0  0  0  0  0  0  0
    7.3155   -3.4563    0.0000 O   0  0  0  0  0  0  0  0  0  0  0  0
    8.6497   -3.4563    0.0000 C   0  0  0  0  0  0  0  0  0  0  0  0
  1  2  2  0  0  0  0
  2  3  1  0  0  0  0
  2 13  1  0  0  0  0
  2 15  1  0  0  0  0
  3  4  1  0  0  0  0
  4  5  2  0  0  0  0
  4  9  1  0  0  0  0
  5  6  1  0  0  0  0
  6  7  2  0  0  0  0
  7  8  1  0  0  0  0
  7 10  1  0  0  0  0
  8  9  2  0  0  0  0
 10 11  2  0  0  0  0
 10 12  1  0  0  0  0
 13 14  1  0  0  0  0
 15 16  1  0  0  0  0
M  END
>  <DSSTox_RID>
20855

>  <DSSTox_CID>
855

>  <DSSTox_Generic_SID>
20855

>  <DSSTox_FileID>
895_CPDBAS_v5d

>  <STRUCTURE_Formula>
C8H10NO5PS

>  <STRUCTURE_MolecularWeight>
263.2075

>  <STRUCTURE_ChemicalType>
defined organic

>  <STRUCTURE_TestedForm_DefinedOrganic>
parent

>  <STRUCTURE_Shown>
tested chemical

>  <TestSubstance_ChemicalName>
Methyl parathion

>  <TestSubstance_CASRN>
298-00-0

>  <TestSubstance_Description>
single chemical compound

>  <STRUCTURE_ChemicalName_IUPAC>
O,O-dimethyl O-(4-nitrophenyl) thiophosphate

>  <STRUCTURE_SMILES>
S=P(OC1=CC=C(C=C1)[N+](=O)[O-])(OC)OC

>  <STRUCTURE_Parent_SMILES>
S=P(OC1=CC=C(C=C1)[N+](=O)[O-])(OC)OC

>  <STRUCTURE_InChI>
InChI=1/C8H10NO5PS/c1-12-15(16,13-2)14-8-5-3-7(4-6-8)9(10)11/h3-6H,1-2H3

>  <STRUCTURE_InChIKey>
RLBIQVVOMOPOHC-UHFFFAOYAW

>  <StudyType>
Carcinogenicity

>  <Endpoint>
TD50; Tumor Target Sites

>  <Species>
rat; mouse

>  <ActivityOutcome_CPDBAS_Mutagenicity>
active

>  <ActivityScore_CPDBAS_Rat>
0

>  <TD50_Rat_Note>
no positive results

>  <TargetSites_Rat_Male>
no positive results

>  <TargetSites_Rat_Female>
no positive results

>  <ActivityOutcome_CPDBAS_Rat>
inactive

>  <ActivityScore_CPDBAS_Mouse>
0

>  <TD50_Mouse_Note>
no positive results

>  <TargetSites_Mouse_Male>
no positive results

>  <TargetSites_Mouse_Female>
no positive results

>  <ActivityOutcome_CPDBAS_Mouse>
inactive

>  <ActivityOutcome_CPDBAS_SingleCellCall>
inactive

>  <ActivityOutcome_CPDBAS_MultiCellCall>
inactive

>  <ActivityOutcome_CPDBAS_MultiCellCall_Details>
multisex inactive; multispecies inactive

>  <NTP_TechnicalReport>
TR 157

>  <ChemicalPage_URL>
http://potency.berkeley.edu/chempages/METHYL%20PARATHION.html

$$$$



  7  7  0  0  0  0  0  0  0  0999 V2000
    0.0000   -2.3405    0.0000 O   0  0  0  0  0  0  0  0  0  0  0  0
    1.3291   -2.3405    0.0000 C   0  0  0  0  0  0  0  0  0  0  0  0
    2.1116   -1.2642    0.0000 N   0  0  0  0  0  0  0  0  0  0  0  0
    3.3758   -1.6742    0.0000 C   0  0  0  0  0  0  0  0  0  0  0  0
    3.3758   -3.0067    0.0000 C   0  0  0  0  0  0  0  0  0  0  0  0
    2.1116   -3.4168    0.0000 C   0  0  0  0  0  0  0  0  0  0  0  0
    1.7015    0.0000    0.0000 C   0  0  0  0  0  0  0  0  0  0  0  0
  1  2  2  0  0  0  0
  2  3  1  0  0  0  0
  2  6  1  0  0  0  0
  3  4  1  0  0  0  0
  3  7  1  0  0  0  0
  4  5  1  0  0  0  0
  5  6  1  0  0  0  0
M  END
>  <DSSTox_RID>
20856

>  <DSSTox_CID>
856

>  <DSSTox_Generic_SID>
20856

>  <DSSTox_FileID>
896_CPDBAS_v5d

>  <STRUCTURE_Formula>
C5H9NO

>  <STRUCTURE_MolecularWeight>
99.1311

>  <STRUCTURE_ChemicalType>
defined organic

>  <STRUCTURE_TestedForm_DefinedOrganic>
parent

>  <STRUCTURE_Shown>
tested chemical

>  <TestSubstance_ChemicalName>
N-Methyl-2-pyrrolidone

>  <TestSubstance_CASRN>
872-50-4

>  <TestSubstance_Description>
single chemical compound

>  <STRUCTURE_ChemicalName_IUPAC>
1-methylpyrrolidin-2-one

>  <STRUCTURE_SMILES>
O=C1N(CCC1)C

>  <STRUCTURE_Parent_SMILES>
O=C1N(CCC1)C

>  <STRUCTURE_InChI>
InChI=1/C5H9NO/c1-6-4-2-3-5(6)7/h2-4H2,1H3

>  <STRUCTURE_InChIKey>
SECXISVLQFMRJM-UHFFFAOYAL

>  <StudyType>
Carcinogenicity

>  <Endpoint>
TD50; Tumor Target Sites

>  <Species>
rat; mouse

>  <ActivityOutcome_CPDBAS_Mutagenicity>
inactive

>  <ActivityScore_CPDBAS_Rat>
0

>  <TD50_Rat_Note>
no positive results

>  <TargetSites_Rat_Male>
no positive results

>  <TargetSites_Rat_Female>
no positive results

>  <ActivityOutcome_CPDBAS_Rat>
inactive

>  <TD50_Mouse_mg>
2050

>  <TD50_Mouse_mmol>
20.7

>  <ActivityScore_CPDBAS_Mouse>
13

>  <TD50_Mouse_Note>
TD50 is harmonic mean of more than one positive test

>  <TargetSites_Mouse_Male>
liver

>  <TargetSites_Mouse_Female>
liver

>  <ActivityOutcome_CPDBAS_Mouse>
active

>  <ActivityOutcome_CPDBAS_SingleCellCall>
active

>  <ActivityOutcome_CPDBAS_MultiCellCall>
active

>  <ActivityOutcome_CPDBAS_MultiCellCall_Details>
multisex active

>  <Note_CPDBAS>
Mouse modified v5a

>  <NTP_TechnicalReport>
Mouse added v5a

>  <ChemicalPage_URL>
http://potency.berkeley.edu/chempages/N-METHYL-2-PYRROLIDONE.html

$$$$



 11 12  0  0  0  0  0  0  0  0999 V2000
    0.0000   -3.4549    0.0000 C   0  0  0  0  0  0  0  0  0  0  0  0
    1.3309   -3.4549    0.0000 N   0  0  0  0  0  0  0  0  0  0  0  0
    1.9936   -2.3032    0.0000 C   0  0  0  0  0  0  0  0  0  0  0  0
    1.3309   -1.1516    0.0000 N   0  0  0  0  0  0  0  0  0  0  0  0
    1.9936    0.0000    0.0000 C   0  0  0  0  0  0  0  0  0  0  0  0
    3.3245    0.0000    0.0000 N   0  0  0  0  0  0  0  0  0  0  0  0
    3.9926   -1.1516    0.0000 C   0  0  0  0  0  0  0  0  0  0  0  0
    3.3245   -2.3032    0.0000 C   0  0  0  0  0  0  0  0  0  0  0  0
    4.2154   -3.2919    0.0000 N   0  0  0  0  0  0  0  0  0  0  0  0
    5.4322   -2.7487    0.0000 C   0  0  0  0  0  0  0  0  0  0  0  0
    5.2909   -1.4287    0.0000 N   0  0  0  0  0  0  0  0  0  0  0  0
  1  2  1  0  0  0  0
  2  3  1  0  0  0  0
  3  4  2  0  0  0  0
  3  8  1  0  0  0  0
  4  5  1  0  0  0  0
  5  6  2  0  0  0  0
  6  7  1  0  0  0  0
  7  8  2  0  0  0  0
  7 11  1  0  0  0  0
  8  9  1  0  0  0  0
  9 10  2  0  0  0  0
 10 11  1  0  0  0  0
M  END
>  <DSSTox_RID>
20857

>  <DSSTox_CID>
857

>  <DSSTox_Generic_SID>
20857

>  <DSSTox_FileID>
897_CPDBAS_v5d

>  <STRUCTURE_Formula>
C6H7N5

>  <STRUCTURE_MolecularWeight>
149.1548

>  <STRUCTURE_ChemicalType>
defined organic

>  <STRUCTURE_TestedForm_DefinedOrganic>
parent

>  <STRUCTURE_Shown>
tested chemical

>  <TestSubstance_ChemicalName>
(N-6)-Methyladenine

>  <TestSubstance_CASRN>
443-72-1

>  <TestSubstance_Description>
single chemical compound

>  <ChemicalNote>
tautomers

>  <STRUCTURE_ChemicalName_IUPAC>
N-methyl-9H-purin-6-amine

>  <STRUCTURE_SMILES>
CNC1=NC=NC2=C1N=CN2

>  <STRUCTURE_Parent_SMILES>
CNC1=NC=NC2=C1N=CN2

>  <STRUCTURE_InChI>
InChI=1/C6H7N5/c1-7-5-4-6(10-2-8-4)11-3-9-5/h2-3H,1H3,(H2,7,8,9,10,11)/f/h7,10H

>  <STRUCTURE_InChIKey>
CKOMXBHMKXXTNW-BVBTXPNWCV

>  <StudyType>
Carcinogenicity

>  <Endpoint>
TD50; Tumor Target Sites

>  <Species>
mouse

>  <ActivityScore_CPDBAS_Mouse>
0

>  <TD50_Mouse_Note>
no positive results

>  <TargetSites_Mouse_Male>
no positive results

>  <TargetSites_Mouse_Female>
no positive results

>  <ActivityOutcome_CPDBAS_Mouse>
inactive

>  <ActivityOutcome_CPDBAS_SingleCellCall>
inactive

>  <ActivityOutcome_CPDBAS_MultiCellCall>
inactive

>  <ActivityOutcome_CPDBAS_MultiCellCall_Details>
multisex inactive

>  <ChemicalPage_URL>
http://potency.berkeley.edu/chempages/(N-6)-METHYLADENINE.html

$$$$



 20 22  0  0  1  0  0  0  0  0999 V2000
    4.7148   -8.4647    0.0000 O   0  0  0  0  0  0  0  0  0  0  0  0
    3.9445   -7.3981    0.0000 C   0  0  1  0  0  0  0  0  0  0  0  0
    4.3339   -6.1538    0.0000 C   0  0  2  0  0  0  0  0  0  0  0  0
    2.6240   -7.3981    0.0000 C   0  0  2  0  0  0  0  0  0  0  0  0
    4.3847   -4.3593    0.0000 N   0  0  0  0  0  0  0  0  0  0  0  0
    3.2843   -5.3835    0.0000 O   0  0  0  0  0  0  0  0  0  0  0  0
    1.8622   -8.4647    0.0000 O   0  0  0  0  0  0  0  0  0  0  0  0
    2.2177   -6.1538    0.0000 C   0  0  2  0  0  0  0  0  0  0  0  0
    3.1404   -3.9530    0.0000 C   0  0  0  0  0  0  0  0  0  0  0  0
    5.1634   -3.3097    0.0000 C   0  0  0  0  0  0  0  0  0  0  0  0
    0.9734   -5.7560    0.0000 C   0  0  0  0  0  0  0  0  0  0  0  0
    3.1404   -2.6410    0.0000 C   0  0  0  0  0  0  0  0  0  0  0  0
    1.9977   -4.6048    0.0000 N   0  0  0  0  0  0  0  0  0  0  0  0
    4.3847   -2.2431    0.0000 N   0  0  0  0  0  0  0  0  0  0  0  0
    0.0000   -6.6278    0.0000 O   0  0  0  0  0  0  0  0  0  0  0  0
    2.0146   -1.9723    0.0000 C   0  0  0  0  0  0  0  0  0  0  0  0
    0.8719   -3.9361    0.0000 C   0  0  0  0  0  0  0  0  0  0  0  0
    1.9723   -0.7110    0.0000 N   0  0  0  0  0  0  0  0  0  0  0  0
    0.8803   -2.6240    0.0000 N   0  0  0  0  0  0  0  0  0  0  0  0
    0.8803    0.0000    0.0000 C   0  0  0  0  0  0  0  0  0  0  0  0
  2  1  1  6  0  0  0
  2  3  1  0  0  0  0
  2  4  1  0  0  0  0
  3  5  1  1  0  0  0
  3  6  1  0  0  0  0
  4  7  1  6  0  0  0
  4  8  1  0  0  0  0
  5  9  1  0  0  0  0
  5 10  1  0  0  0  0
  6  8  1  0  0  0  0
  8 11  1  1  0  0  0
  9 12  2  0  0  0  0
  9 13  1  0  0  0  0
 10 14  2  0  0  0  0
 11 15  1  0  0  0  0
 12 14  1  0  0  0  0
 12 16  1  0  0  0  0
 13 17  2  0  0  0  0
 16 18  1  0  0  0  0
 16 19  2  0  0  0  0
 17 19  1  0  0  0  0
 18 20  1  0  0  0  0
M  END
>  <DSSTox_RID>
20858

>  <DSSTox_CID>
858

>  <DSSTox_Generic_SID>
20858

>  <DSSTox_FileID>
898_CPDBAS_v5d

>  <STRUCTURE_Formula>
C11H15N5O4

>  <STRUCTURE_MolecularWeight>
281.2706

>  <STRUCTURE_ChemicalType>
defined organic

>  <STRUCTURE_TestedForm_DefinedOrganic>
parent

>  <STRUCTURE_Shown>
tested chemical

>  <TestSubstance_ChemicalName>
(N-6)-Methyladenosine

>  <TestSubstance_CASRN>
1867-73-8

>  <TestSubstance_Description>
single chemical compound

>  <ChemicalNote>
stereochem

>  <STRUCTURE_ChemicalName_IUPAC>
N-methyladenosine

>  <STRUCTURE_SMILES>
O[C@H]([C@@H]2O)[C@@H](O[C@@H]2CO)N1C(N=CN=C3NC)=C3N=C1

>  <STRUCTURE_Parent_SMILES>
O[C@H]([C@@H]2O)[C@@H](O[C@@H]2CO)N1C(N=CN=C3NC)=C3N=C1

>  <STRUCTURE_InChI>
InChI=1/C11H15N5O4/c1-12-9-6-10(14-3-13-9)16(4-15-6)11-8(19)7(18)5(2-17)20-11/h3-5,7-8,11,17-19H,2H2,1H3,(H,12,13,14)/t5-,7-,8-,11-/m1/s1/f/h12H

>  <STRUCTURE_InChIKey>
VQAYFKKCNSOZKM-VYASYHSBDB

>  <StudyType>
Carcinogenicity

>  <Endpoint>
TD50; Tumor Target Sites

>  <Species>
mouse

>  <ActivityScore_CPDBAS_Mouse>
0

>  <TD50_Mouse_Note>
no positive results

>  <TargetSites_Mouse_Male>
no positive results

>  <TargetSites_Mouse_Female>
no positive results

>  <ActivityOutcome_CPDBAS_Mouse>
inactive

>  <ActivityOutcome_CPDBAS_SingleCellCall>
inactive

>  <ActivityOutcome_CPDBAS_MultiCellCall>
inactive

>  <ActivityOutcome_CPDBAS_MultiCellCall_Details>
multisex inactive

>  <Note_CPDBAS>
structure modified v5b

>  <ChemicalPage_URL>
http://potency.berkeley.edu/chempages/(N-6)-METHYLADENOSINE.html

$$$$



  9  9  0  0  0  0  0  0  0  0999 V2000
    4.6539   -1.1542    0.0000 C   0  0  0  0  0  0  0  0  0  0  0  0
    3.9884   -2.3037    0.0000 C   0  0  0  0  0  0  0  0  0  0  0  0
    2.6574   -2.3037    0.0000 C   0  0  0  0  0  0  0  0  0  0  0  0
    1.9965   -1.1542    0.0000 C   0  0  0  0  0  0  0  0  0  0  0  0
    0.6655   -1.1542    0.0000 C   0  0  3  0  0  0  0  0  0  0  0  0
    0.0000   -2.3037    0.0000 O   0  0  0  0  0  0  0  0  0  0  0  0
    0.0000    0.0000    0.0000 C   0  0  0  0  0  0  0  0  0  0  0  0
    3.9884    0.0000    0.0000 C   0  0  0  0  0  0  0  0  0  0  0  0
    2.6574    0.0000    0.0000 C   0  0  0  0  0  0  0  0  0  0  0  0
  1  2  2  0  0  0  0
  1  8  1  0  0  0  0
  2  3  1  0  0  0  0
  3  4  2  0  0  0  0
  4  5  1  0  0  0  0
  4  9  1  0  0  0  0
  5  6  1  0  0  0  0
  5  7  1  0  0  0  0
  8  9  2  0  0  0  0
M  END
>  <DSSTox_RID>
20859

>  <DSSTox_CID>
859

>  <DSSTox_Generic_SID>
20859

>  <DSSTox_FileID>
899_CPDBAS_v5d

>  <STRUCTURE_Formula>
C8H10O

>  <STRUCTURE_MolecularWeight>
122.1644

>  <STRUCTURE_ChemicalType>
defined organic

>  <STRUCTURE_TestedForm_DefinedOrganic>
parent

>  <STRUCTURE_Shown>
tested chemical

>  <TestSubstance_ChemicalName>
alpha-Methylbenzyl alcohol

>  <TestSubstance_CASRN>
98-85-1

>  <TestSubstance_Description>
single chemical compound

>  <STRUCTURE_ChemicalName_IUPAC>
1-phenylethanol

>  <STRUCTURE_SMILES>
C1=CC=C(C(O)C)C=C1

>  <STRUCTURE_Parent_SMILES>
C1=CC=C(C(O)C)C=C1

>  <STRUCTURE_InChI>
InChI=1/C8H10O/c1-7(9)8-5-3-2-4-6-8/h2-7,9H,1H3

>  <STRUCTURE_InChIKey>
WAPNOHKVXSQRPX-UHFFFAOYAF

>  <StudyType>
Carcinogenicity

>  <Endpoint>
TD50; Tumor Target Sites

>  <Species>
rat; mouse

>  <ActivityOutcome_CPDBAS_Mutagenicity>
inactive

>  <TD50_Rat_mg>
458

>  <TD50_Rat_mmol>
3.75

>  <ActivityScore_CPDBAS_Rat>
20

>  <TargetSites_Rat_Male>
kidney

>  <TargetSites_Rat_Female>
no positive results

>  <ActivityOutcome_CPDBAS_Rat>
active

>  <ActivityScore_CPDBAS_Mouse>
0

>  <TD50_Mouse_Note>
no positive results

>  <TargetSites_Mouse_Male>
no positive results

>  <TargetSites_Mouse_Female>
no positive results

>  <ActivityOutcome_CPDBAS_Mouse>
inactive

>  <ActivityOutcome_CPDBAS_SingleCellCall>
active

>  <NTP_TechnicalReport>
TR 369

>  <ChemicalPage_URL>
http://potency.berkeley.edu/chempages/alpha-METHYLBENZYL%20ALCOHOL.html

$$$$



 10  9  0  0  0  0  0  0  0  0999 V2000
    6.9171    0.0000    0.0000 C   0  0  0  0  0  0  0  0  0  0  0  0
    6.9171   -1.3318    0.0000 C   0  0  0  0  0  0  0  0  0  0  0  0
    5.7629   -1.9936    0.0000 C   0  0  0  0  0  0  0  0  0  0  0  0
    4.6087   -1.3318    0.0000 C   0  0  0  0  0  0  0  0  0  0  0  0
    3.4626   -1.9936    0.0000 N   0  0  0  0  0  0  0  0  0  0  0  0
    2.3084   -1.3318    0.0000 N   0  0  0  0  0  0  0  0  0  0  0  0
    1.1542   -1.9936    0.0000 C   0  0  0  0  0  0  0  0  0  0  0  0
    0.0000   -1.3318    0.0000 O   0  0  0  0  0  0  0  0  0  0  0  0
    2.3084    0.0000    0.0000 C   0  0  0  0  0  0  0  0  0  0  0  0
    8.0713   -1.9936    0.0000 C   0  0  0  0  0  0  0  0  0  0  0  0
  1  2  1  0  0  0  0
  2  3  1  0  0  0  0
  2 10  1  0  0  0  0
  3  4  1  0  0  0  0
  4  5  2  0  0  0  0
  5  6  1  0  0  0  0
  6  7  1  0  0  0  0
  6  9  1  0  0  0  0
  7  8  2  0  0  0  0
M  END
>  <DSSTox_RID>
20860

>  <DSSTox_CID>
860

>  <DSSTox_Generic_SID>
20860

>  <DSSTox_FileID>
900_CPDBAS_v5d

>  <STRUCTURE_Formula>
C7H14N2O

>  <STRUCTURE_MolecularWeight>
142.2004

>  <STRUCTURE_ChemicalType>
defined organic

>  <STRUCTURE_TestedForm_DefinedOrganic>
parent

>  <STRUCTURE_Shown>
tested chemical

>  <TestSubstance_ChemicalName>
3-Methylbutanal methylformylhydrazone

>  <TestSubstance_CASRN>
57590-21-3

>  <TestSubstance_Description>
single chemical compound

>  <ChemicalNote>
stereochem

>  <STRUCTURE_ChemicalName_IUPAC>
N-methyl-N'-[(1E)-3-methylbutylidene]formic hydrazide

>  <STRUCTURE_SMILES>
CC(C/C=N/N(C=O)C)C

>  <STRUCTURE_Parent_SMILES>
CC(C/C=N/N(C=O)C)C

>  <STRUCTURE_InChI>
InChI=1/C7H14N2O/c1-7(2)4-5-8-9(3)6-10/h5-7H,4H2,1-3H3/b8-5+

>  <STRUCTURE_InChIKey>
GZCRKMACGRBALK-VMPITWQZBZ

>  <StudyType>
Carcinogenicity

>  <Endpoint>
TD50; Tumor Target Sites

>  <Species>
mouse

>  <TD50_Mouse_mg>
2.23

>  <TD50_Mouse_mmol>
0.0157

>  <ActivityScore_CPDBAS_Mouse>
49

>  <TD50_Mouse_Note>
TD50 is harmonic mean of more than one positive test

>  <TargetSites_Mouse_Male>
gall bladder; liver; lung; preputial gland

>  <TargetSites_Mouse_Female>
gall bladder; liver; lung

>  <ActivityOutcome_CPDBAS_Mouse>
active

>  <ActivityOutcome_CPDBAS_SingleCellCall>
active

>  <ActivityOutcome_CPDBAS_MultiCellCall>
active

>  <ActivityOutcome_CPDBAS_MultiCellCall_Details>
multisite active; multisex active

>  <ChemicalPage_URL>
http://potency.berkeley.edu/chempages/3-METHYLBUTANAL%20METHYLFORMYLHYDRAZONE.html

$$$$



  9  9  0  0  0  0  0  0  0  0999 V2000
    0.0000   -2.6589    0.0000 O   0  0  0  0  0  0  0  0  0  0  0  0
    1.1520   -1.9953    0.0000 C   0  0  0  0  0  0  0  0  0  0  0  0
    1.1520   -0.6636    0.0000 C   0  0  0  0  0  0  0  0  0  0  0  0
    2.3041    0.0000    0.0000 C   0  0  0  0  0  0  0  0  0  0  0  0
    3.4561   -0.6636    0.0000 C   0  0  0  0  0  0  0  0  0  0  0  0
    3.4561   -1.9953    0.0000 C   0  0  0  0  0  0  0  0  0  0  0  0
    2.3041   -2.6589    0.0000 C   0  0  0  0  0  0  0  0  0  0  0  0
    4.6082   -2.6589    0.0000 C   0  0  0  0  0  0  0  0  0  0  0  0
    0.0000    0.0000    0.0000 O   0  0  0  0  0  0  0  0  0  0  0  0
  1  2  1  0  0  0  0
  2  3  2  0  0  0  0
  2  7  1  0  0  0  0
  3  4  1  0  0  0  0
  3  9  1  0  0  0  0
  4  5  2  0  0  0  0
  5  6  1  0  0  0  0
  6  7  2  0  0  0  0
  6  8  1  0  0  0  0
M  END
>  <DSSTox_RID>
20861

>  <DSSTox_CID>
861

>  <DSSTox_Generic_SID>
20861

>  <DSSTox_FileID>
901_CPDBAS_v5d

>  <STRUCTURE_Formula>
C7H8O2

>  <STRUCTURE_MolecularWeight>
124.1372

>  <STRUCTURE_ChemicalType>
defined organic

>  <STRUCTURE_TestedForm_DefinedOrganic>
parent

>  <STRUCTURE_Shown>
tested chemical

>  <TestSubstance_ChemicalName>
4-Methylcatechol

>  <TestSubstance_CASRN>
452-86-8

>  <TestSubstance_Description>
single chemical compound

>  <STRUCTURE_ChemicalName_IUPAC>
4-methylbenzene-1,2-diol

>  <STRUCTURE_SMILES>
OC1=C(C=CC(=C1)C)O

>  <STRUCTURE_Parent_SMILES>
OC1=C(C=CC(=C1)C)O

>  <STRUCTURE_InChI>
InChI=1/C7H8O2/c1-5-2-3-6(8)7(9)4-5/h2-4,8-9H,1H3

>  <STRUCTURE_InChIKey>
ZBCATMYQYDCTIZ-UHFFFAOYAF

>  <StudyType>
Carcinogenicity

>  <Endpoint>
TD50; Tumor Target Sites

>  <Species>
rat

>  <ActivityOutcome_CPDBAS_Mutagenicity>
inactive

>  <TD50_Rat_mg>
248

>  <TD50_Rat_mmol>
2

>  <ActivityScore_CPDBAS_Rat>
23

>  <TD50_Rat_Note>
TD50 is harmonic mean of more than one positive test; harmonic mean of TD50 includes a value for upper 99% confidence limit from study with 100% tumor incidence but no lifetable

>  <TargetSites_Rat_Male>
stomach

>  <TargetSites_Rat_Female>
stomach

>  <ActivityOutcome_CPDBAS_Rat>
active

>  <ActivityOutcome_CPDBAS_SingleCellCall>
active

>  <ActivityOutcome_CPDBAS_MultiCellCall>
active

>  <ActivityOutcome_CPDBAS_MultiCellCall_Details>
multisex active

>  <Note_CPDBAS>
TD50_Rat_Note modified v5a

>  <ChemicalPage_URL>
http://potency.berkeley.edu/chempages/4-METHYLCATECHOL.html

$$$$



 21 25  0  0  0  0  0  0  0  0999 V2000
    9.9762   -1.1572    0.0000 C   0  0  0  0  0  0  0  0  0  0  0  0
    8.6494   -1.1572    0.0000 C   0  0  0  0  0  0  0  0  0  0  0  0
    7.9809   -2.3045    0.0000 C   0  0  0  0  0  0  0  0  0  0  0  0
    6.6541   -2.3045    0.0000 C   0  0  0  0  0  0  0  0  0  0  0  0
    5.9857   -1.1572    0.0000 C   0  0  0  0  0  0  0  0  0  0  0  0
    4.6589   -1.1572    0.0000 C   0  0  0  0  0  0  0  0  0  0  0  0
    3.9905   -2.3045    0.0000 C   0  0  0  0  0  0  0  0  0  0  0  0
    4.6589   -3.4617    0.0000 C   0  0  0  0  0  0  0  0  0  0  0  0
    5.9857   -3.4617    0.0000 C   0  0  0  0  0  0  0  0  0  0  0  0
    7.0232   -4.2898    0.0000 C   0  0  0  0  0  0  0  0  0  0  0  0
    8.1805   -3.6214    0.0000 C   0  0  0  0  0  0  0  0  0  0  0  0
    3.9905   -4.6090    0.0000 C   0  0  0  0  0  0  0  0  0  0  0  0
    2.6636   -4.6090    0.0000 C   0  0  0  0  0  0  0  0  0  0  0  0
    1.9952   -3.4617    0.0000 C   0  0  0  0  0  0  0  0  0  0  0  0
    0.6684   -3.4617    0.0000 C   0  0  0  0  0  0  0  0  0  0  0  0
    0.0000   -2.3045    0.0000 C   0  0  0  0  0  0  0  0  0  0  0  0
    0.6684   -1.1572    0.0000 C   0  0  0  0  0  0  0  0  0  0  0  0
    1.9952   -1.1572    0.0000 C   0  0  0  0  0  0  0  0  0  0  0  0
    2.6636   -2.3045    0.0000 C   0  0  0  0  0  0  0  0  0  0  0  0
    6.6541    0.0000    0.0000 C   0  0  0  0  0  0  0  0  0  0  0  0
    7.9809    0.0000    0.0000 C   0  0  0  0  0  0  0  0  0  0  0  0
  1  2  1  0  0  0  0
  2  3  2  0  0  0  0
  2 21  1  0  0  0  0
  3  4  1  0  0  0  0
  3 11  1  0  0  0  0
  4  5  2  0  0  0  0
  4  9  1  0  0  0  0
  5  6  1  0  0  0  0
  5 20  1  0  0  0  0
  6  7  2  0  0  0  0
  7  8  1  0  0  0  0
  7 19  1  0  0  0  0
  8  9  2  0  0  0  0
  8 12  1  0  0  0  0
  9 10  1  0  0  0  0
 10 11  1  0  0  0  0
 12 13  2  0  0  0  0
 13 14  1  0  0  0  0
 14 15  2  0  0  0  0
 14 19  1  0  0  0  0
 15 16  1  0  0  0  0
 16 17  2  0  0  0  0
 17 18  1  0  0  0  0
 18 19  2  0  0  0  0
 20 21  2  0  0  0  0
M  END
>  <DSSTox_RID>
20862

>  <DSSTox_CID>
862

>  <DSSTox_Generic_SID>
20862

>  <DSSTox_FileID>
902_CPDBAS_v5d

>  <STRUCTURE_Formula>
C21H16

>  <STRUCTURE_MolecularWeight>
268.3517

>  <STRUCTURE_ChemicalType>
defined organic

>  <STRUCTURE_TestedForm_DefinedOrganic>
parent

>  <STRUCTURE_Shown>
tested chemical

>  <TestSubstance_ChemicalName>
3-Methylcholanthrene

>  <TestSubstance_CASRN>
56-49-5

>  <TestSubstance_Description>
single chemical compound

>  <STRUCTURE_ChemicalName_IUPAC>
3-methyl-1,2-dihydrocyclopenta[ij]tetraphene

>  <STRUCTURE_SMILES>
CC1=C2C3=C(C=C4C(=C3CC2)C=CC5=CC=CC=C45)C=C1

>  <STRUCTURE_Parent_SMILES>
CC1=C2C3=C(C=C4C(=C3CC2)C=CC5=CC=CC=C45)C=C1

>  <STRUCTURE_InChI>
InChI=1/C21H16/c1-13-6-7-15-12-20-17-5-3-2-4-14(17)8-9-18(20)19-11-10-16(13)21(15)19/h2-9,12H,10-11H2,1H3

>  <STRUCTURE_InChIKey>
PPQNQXQZIWHJRB-UHFFFAOYAO

>  <StudyType>
Carcinogenicity

>  <Endpoint>
TD50; Tumor Target Sites

>  <Species>
rat; rhesus; cynomolgus

>  <ActivityOutcome_CPDBAS_Mutagenicity>
active

>  <TD50_Rat_mg>
0.491

>  <TD50_Rat_mmol>
0.00183

>  <ActivityScore_CPDBAS_Rat>
54

>  <TD50_Rat_Note>
TD50 is harmonic mean of more than one positive test; harmonic mean of TD50 includes a value for upper 99% confidence limit from study with 100% tumor incidence but no lifetable

>  <TargetSites_Rat_Male>
no positive results

>  <TargetSites_Rat_Female>
mammary gland

>  <ActivityOutcome_CPDBAS_Rat>
active

>  <TargetSites_Rhesus>
no positive results

>  <TargetSites_Cynomolgus>
no positive results

>  <TD50_Dog_Primates_Note>
no positive results for Rhesus and Cynomolgus

>  <ActivityOutcome_CPDBAS_Dog_Primates>
inactive

>  <ActivityOutcome_CPDBAS_SingleCellCall>
active

>  <Note_CPDBAS>
Cynomolgus added v2a

>  <ChemicalPage_URL>
http://potency.berkeley.edu/chempages/3-METHYLCHOLANTHRENE.html

$$$$



 17 18  0  0  0  0  0  0  0  0999 V2000
    0.0000   -3.9880    0.0000 Cl  0  0  0  0  0  0  0  0  0  0  0  0
    1.1513   -3.3249    0.0000 C   0  0  0  0  0  0  0  0  0  0  0  0
    1.1513   -1.9894    0.0000 C   0  0  0  0  0  0  0  0  0  0  0  0
    2.3026   -1.3263    0.0000 C   0  0  0  0  0  0  0  0  0  0  0  0
    3.4538   -1.9894    0.0000 C   0  0  0  0  0  0  0  0  0  0  0  0
    3.4538   -3.3249    0.0000 C   0  0  0  0  0  0  0  0  0  0  0  0
    2.3026   -3.9880    0.0000 C   0  0  0  0  0  0  0  0  0  0  0  0
    4.6051   -3.9880    0.0000 C   0  0  0  0  0  0  0  0  0  0  0  0
    5.7564   -3.3249    0.0000 C   0  0  0  0  0  0  0  0  0  0  0  0
    5.7564   -1.9894    0.0000 C   0  0  0  0  0  0  0  0  0  0  0  0
    6.9076   -1.3263    0.0000 C   0  0  0  0  0  0  0  0  0  0  0  0
    8.0589   -1.9894    0.0000 C   0  0  0  0  0  0  0  0  0  0  0  0
    8.0589   -3.3249    0.0000 C   0  0  0  0  0  0  0  0  0  0  0  0
    6.9076   -3.9880    0.0000 C   0  0  0  0  0  0  0  0  0  0  0  0
    9.2102   -1.3263    0.0000 N   0  0  0  0  0  0  0  0  0  0  0  0
    6.9076    0.0000    0.0000 Cl  0  0  0  0  0  0  0  0  0  0  0  0
    0.0000   -1.3263    0.0000 N   0  0  0  0  0  0  0  0  0  0  0  0
  1  2  1  0  0  0  0
  2  3  2  0  0  0  0
  2  7  1  0  0  0  0
  3  4  1  0  0  0  0
  3 17  1  0  0  0  0
  4  5  2  0  0  0  0
  5  6  1  0  0  0  0
  6  7  2  0  0  0  0
  6  8  1  0  0  0  0
  8  9  1  0  0  0  0
  9 10  2  0  0  0  0
  9 14  1  0  0  0  0
 10 11  1  0  0  0  0
 11 12  2  0  0  0  0
 11 16  1  0  0  0  0
 12 13  1  0  0  0  0
 12 15  1  0  0  0  0
 13 14  2  0  0  0  0
M  END
>  <DSSTox_RID>
20865

>  <DSSTox_CID>
865

>  <DSSTox_Generic_SID>
20865

>  <DSSTox_FileID>
905_CPDBAS_v5d

>  <STRUCTURE_Formula>
C13H12Cl2N2

>  <STRUCTURE_MolecularWeight>
267.1538

>  <STRUCTURE_ChemicalType>
defined organic

>  <STRUCTURE_TestedForm_DefinedOrganic>
parent

>  <STRUCTURE_Shown>
tested chemical

>  <TestSubstance_ChemicalName>
4,4'-Methylene-bis(2-chloroaniline)

>  <TestSubstance_CASRN>
101-14-4

>  <TestSubstance_Description>
single chemical compound

>  <STRUCTURE_ChemicalName_IUPAC>
4,4'-methylenebis(2-chloroaniline)

>  <STRUCTURE_SMILES>
ClC1=C(C=CC(=C1)CC2=CC(=C(C=C2)N)Cl)N

>  <STRUCTURE_Parent_SMILES>
ClC1=C(C=CC(=C1)CC2=CC(=C(C=C2)N)Cl)N

>  <STRUCTURE_InChI>
InChI=1/C13H12Cl2N2/c14-10-6-8(1-3-12(10)16)5-9-2-4-13(17)11(15)7-9/h1-4,6-7H,5,16-17H2

>  <STRUCTURE_InChIKey>
IBOFVQJTBBUKMU-UHFFFAOYAI

>  <StudyType>
Carcinogenicity

>  <Endpoint>
TD50; Tumor Target Sites

>  <Species>
rat; dog

>  <ActivityOutcome_CPDBAS_Mutagenicity>
active

>  <TD50_Rat_mg>
19.3

>  <TD50_Rat_mmol>
0.0722

>  <ActivityScore_CPDBAS_Rat>
38

>  <TD50_Rat_Note>
TD50 is harmonic mean of more than one positive test

>  <TargetSites_Rat_Male>
ear Zymbals gland; liver; lung; mammary gland; vascular system

>  <TargetSites_Rat_Female>
liver; lung; mammary gland

>  <ActivityOutcome_CPDBAS_Rat>
active

>  <TD50_Dog_mg>
2.12

>  <TargetSites_Dog>
liver; urinary bladder

>  <ActivityOutcome_CPDBAS_Dog_Primates>
active

>  <ActivityOutcome_CPDBAS_SingleCellCall>
active

>  <ActivityOutcome_CPDBAS_MultiCellCall>
active

>  <ActivityOutcome_CPDBAS_MultiCellCall_Details>
multisite active; multisex active; multispecies active

>  <Note_CPDBAS>
TargetSites_Rat modified v3a

>  <ChemicalPage_URL>
http://potency.berkeley.edu/chempages/4,4'-METHYLENE-BIS(2-CHLOROANILINE).html

$$$$



 17 18  0  0  0  0  0  0  0  0999 V2000
    0.0000   -3.9880    0.0000 C   0  0  0  0  0  0  0  0  0  0  0  0
    1.1513   -3.3249    0.0000 C   0  0  0  0  0  0  0  0  0  0  0  0
    1.1513   -1.9894    0.0000 C   0  0  0  0  0  0  0  0  0  0  0  0
    2.3026   -1.3263    0.0000 C   0  0  0  0  0  0  0  0  0  0  0  0
    3.4538   -1.9894    0.0000 C   0  0  0  0  0  0  0  0  0  0  0  0
    3.4538   -3.3249    0.0000 C   0  0  0  0  0  0  0  0  0  0  0  0
    2.3026   -3.9880    0.0000 C   0  0  0  0  0  0  0  0  0  0  0  0
    4.6051   -3.9880    0.0000 C   0  0  0  0  0  0  0  0  0  0  0  0
    5.7564   -3.3249    0.0000 C   0  0  0  0  0  0  0  0  0  0  0  0
    5.7564   -1.9894    0.0000 C   0  0  0  0  0  0  0  0  0  0  0  0
    6.9076   -1.3263    0.0000 C   0  0  0  0  0  0  0  0  0  0  0  0
    8.0589   -1.9894    0.0000 C   0  0  0  0  0  0  0  0  0  0  0  0
    8.0589   -3.3249    0.0000 C   0  0  0  0  0  0  0  0  0  0  0  0
    6.9076   -3.9880    0.0000 C   0  0  0  0  0  0  0  0  0  0  0  0
    9.2102   -1.3263    0.0000 N   0  0  0  0  0  0  0  0  0  0  0  0
    6.9076    0.0000    0.0000 C   0  0  0  0  0  0  0  0  0  0  0  0
    0.0000   -1.3263    0.0000 N   0  0  0  0  0  0  0  0  0  0  0  0
  1  2  1  0  0  0  0
  2  3  2  0  0  0  0
  2  7  1  0  0  0  0
  3  4  1  0  0  0  0
  3 17  1  0  0  0  0
  4  5  2  0  0  0  0
  5  6  1  0  0  0  0
  6  7  2  0  0  0  0
  6  8  1  0  0  0  0
  8  9  1  0  0  0  0
  9 10  2  0  0  0  0
  9 14  1  0  0  0  0
 10 11  1  0  0  0  0
 11 12  2  0  0  0  0
 11 16  1  0  0  0  0
 12 13  1  0  0  0  0
 12 15  1  0  0  0  0
 13 14  2  0  0  0  0
M  END
>  <DSSTox_RID>
20867

>  <DSSTox_CID>
867

>  <DSSTox_Generic_SID>
20867

>  <DSSTox_FileID>
907_CPDBAS_v5d

>  <STRUCTURE_Formula>
C15H18N2

>  <STRUCTURE_MolecularWeight>
226.3206

>  <STRUCTURE_ChemicalType>
defined organic

>  <STRUCTURE_TestedForm_DefinedOrganic>
parent

>  <STRUCTURE_Shown>
tested chemical

>  <TestSubstance_ChemicalName>
4,4'-Methylene-bis(2-methylaniline)

>  <TestSubstance_CASRN>
838-88-0

>  <TestSubstance_Description>
single chemical compound

>  <STRUCTURE_ChemicalName_IUPAC>
4,4'-methanediylbis(2-methylaniline)

>  <STRUCTURE_SMILES>
CC1=C(C=CC(=C1)CC2=CC(=C(C=C2)N)C)N

>  <STRUCTURE_Parent_SMILES>
CC1=C(C=CC(=C1)CC2=CC(=C(C=C2)N)C)N

>  <STRUCTURE_InChI>
InChI=1/C15H18N2/c1-10-7-12(3-5-14(10)16)9-13-4-6-15(17)11(2)8-13/h3-8H,9,16-17H2,1-2H3

>  <STRUCTURE_InChIKey>
WECDUOXQLAIPQW-UHFFFAOYAJ

>  <StudyType>
Carcinogenicity

>  <Endpoint>
TD50; Tumor Target Sites

>  <Species>
rat

>  <ActivityOutcome_CPDBAS_Mutagenicity>
active

>  <TD50_Rat_mg>
7.38

>  <TD50_Rat_mmol>
0.0326

>  <ActivityScore_CPDBAS_Rat>
41

>  <TD50_Rat_Note>
TD50 is harmonic mean of more than one positive test

>  <TargetSites_Rat_Male>
liver; mammary gland; subcutaneous tissue

>  <TargetSites_Rat_Female>
liver

>  <ActivityOutcome_CPDBAS_Rat>
active

>  <ActivityOutcome_CPDBAS_SingleCellCall>
active

>  <ActivityOutcome_CPDBAS_MultiCellCall>
active

>  <ActivityOutcome_CPDBAS_MultiCellCall_Details>
multisite active; multisex active

>  <ChemicalPage_URL>
http://potency.berkeley.edu/chempages/4,4'-METHYLENE-BIS(2-METHYLANILINE).html

$$$$



  3  2  0  0  0  0  0  0  0  0999 V2000
    2.3030   -0.6656    0.0000 Cl  0  0  0  0  0  0  0  0  0  0  0  0
    1.1515    0.0000    0.0000 C   0  0  0  0  0  0  0  0  0  0  0  0
    0.0000   -0.6656    0.0000 Cl  0  0  0  0  0  0  0  0  0  0  0  0
  1  2  1  0  0  0  0
  2  3  1  0  0  0  0
M  END
>  <DSSTox_RID>
20868

>  <DSSTox_CID>
868

>  <DSSTox_Generic_SID>
20868

>  <DSSTox_FileID>
908_CPDBAS_v5d

>  <STRUCTURE_Formula>
CH2Cl2

>  <STRUCTURE_MolecularWeight>
84.9326

>  <STRUCTURE_ChemicalType>
defined organic

>  <STRUCTURE_TestedForm_DefinedOrganic>
parent

>  <STRUCTURE_Shown>
tested chemical

>  <TestSubstance_ChemicalName>
Methylene chloride

>  <TestSubstance_CASRN>
75-09-2

>  <TestSubstance_Description>
single chemical compound

>  <STRUCTURE_ChemicalName_IUPAC>
dichloromethane

>  <STRUCTURE_SMILES>
ClCCl

>  <STRUCTURE_Parent_SMILES>
ClCCl

>  <STRUCTURE_InChI>
InChI=1/CH2Cl2/c2-1-3/h1H2

>  <STRUCTURE_InChIKey>
YMWUJEATGCHHMB-UHFFFAOYAG

>  <StudyType>
Carcinogenicity

>  <Endpoint>
TD50; Tumor Target Sites

>  <Species>
rat; mouse

>  <ActivityOutcome_CPDBAS_Mutagenicity>
active

>  <TD50_Rat_mg>
724

>  <TD50_Rat_mmol>
8.52

>  <ActivityScore_CPDBAS_Rat>
16

>  <TD50_Rat_Note>
TD50 is harmonic mean of more than one positive test

>  <TargetSites_Rat_Male>
mammary gland

>  <TargetSites_Rat_Female>
mammary gland

>  <ActivityOutcome_CPDBAS_Rat>
active

>  <TD50_Mouse_mg>
1100

>  <TD50_Mouse_mmol>
13

>  <ActivityScore_CPDBAS_Mouse>
16

>  <TD50_Mouse_Note>
TD50 is harmonic mean of more than one positive test

>  <TargetSites_Mouse_Male>
liver; lung

>  <TargetSites_Mouse_Female>
liver; lung

>  <ActivityOutcome_CPDBAS_Mouse>
active

>  <ActivityOutcome_CPDBAS_SingleCellCall>
active

>  <ActivityOutcome_CPDBAS_MultiCellCall>
active

>  <ActivityOutcome_CPDBAS_MultiCellCall_Details>
multisite active; multisex active; multispecies active

>  <NTP_TechnicalReport>
TR 306

>  <ChemicalPage_URL>
http://potency.berkeley.edu/chempages/METHYLENE%20CHLORIDE.html

$$$$



 19 20  0  0  0  0  0  0  0  0999 V2000
    5.7456    0.0000    0.0000 C   0  0  0  0  0  0  0  0  0  0  0  0
    6.8970   -0.6678    0.0000 C   0  0  0  0  0  0  0  0  0  0  0  0
    6.8970   -2.0035    0.0000 C   0  0  0  0  0  0  0  0  0  0  0  0
    8.0599    0.0000    0.0000 C   0  0  0  0  0  0  0  0  0  0  0  0
    8.0599   -2.6598    0.0000 C   0  0  0  0  0  0  0  0  0  0  0  0
    9.2113   -0.6678    0.0000 C   0  0  0  0  0  0  0  0  0  0  0  0
    9.2113   -2.0035    0.0000 C   0  0  0  0  0  0  0  0  0  0  0  0
   10.3628   -2.6598    0.0000 N   0  0  0  0  0  0  0  0  0  0  0  0
   11.5142   -2.0035    0.0000 C   0  0  0  0  0  0  0  0  0  0  0  0
   10.3628   -3.9839    0.0000 C   0  0  0  0  0  0  0  0  0  0  0  0
    4.6172   -0.6678    0.0000 C   0  0  0  0  0  0  0  0  0  0  0  0
    3.4543    0.0000    0.0000 C   0  0  0  0  0  0  0  0  0  0  0  0
    4.6172   -2.0035    0.0000 C   0  0  0  0  0  0  0  0  0  0  0  0
    2.3028   -0.6678    0.0000 C   0  0  0  0  0  0  0  0  0  0  0  0
    3.4543   -2.6598    0.0000 C   0  0  0  0  0  0  0  0  0  0  0  0
    2.3028   -2.0035    0.0000 C   0  0  0  0  0  0  0  0  0  0  0  0
    1.1514   -2.6598    0.0000 N   0  0  0  0  0  0  0  0  0  0  0  0
    1.1514   -3.9839    0.0000 C   0  0  0  0  0  0  0  0  0  0  0  0
    0.0000   -2.0035    0.0000 C   0  0  0  0  0  0  0  0  0  0  0  0
  1  2  1  0  0  0  0
  1 11  1  0  0  0  0
  2  3  2  0  0  0  0
  2  4  1  0  0  0  0
  3  5  1  0  0  0  0
  4  6  2  0  0  0  0
  5  7  2  0  0  0  0
  6  7  1  0  0  0  0
  7  8  1  0  0  0  0
  8  9  1  0  0  0  0
  8 10  1  0  0  0  0
 11 12  2  0  0  0  0
 11 13  1  0  0  0  0
 12 14  1  0  0  0  0
 13 15  2  0  0  0  0
 14 16  2  0  0  0  0
 15 16  1  0  0  0  0
 16 17  1  0  0  0  0
 17 18  1  0  0  0  0
 17 19  1  0  0  0  0
M  END
>  <DSSTox_RID>
20869

>  <DSSTox_CID>
869

>  <DSSTox_Generic_SID>
20869

>  <DSSTox_FileID>
909_CPDBAS_v5d

>  <STRUCTURE_Formula>
C17H22N2

>  <STRUCTURE_MolecularWeight>
254.37

>  <STRUCTURE_ChemicalType>
defined organic

>  <STRUCTURE_TestedForm_DefinedOrganic>
parent

>  <STRUCTURE_Shown>
tested chemical

>  <TestSubstance_ChemicalName>
4,4'-Methylenebis(N,N-dimethyl)benzenamine

>  <TestSubstance_CASRN>
101-61-1

>  <TestSubstance_Description>
single chemical compound

>  <STRUCTURE_ChemicalName_IUPAC>
4,4'-methylenebis(N,N-dimethylaniline)

>  <STRUCTURE_SMILES>
CN(C)C2=CC=C(C=C2)CC1=CC=C(N(C)C)C=C1

>  <STRUCTURE_Parent_SMILES>
CN(C)C2=CC=C(C=C2)CC1=CC=C(N(C)C)C=C1

>  <STRUCTURE_InChI>
InChI=1/C17H22N2/c1-18(2)16-9-5-14(6-10-16)13-15-7-11-17(12-8-15)19(3)4/h5-12H,13H2,1-4H3

>  <STRUCTURE_InChIKey>
JNRLEMMIVRBKJE-UHFFFAOYAR

>  <StudyType>
Carcinogenicity

>  <Endpoint>
TD50; Tumor Target Sites

>  <Species>
rat; mouse

>  <ActivityOutcome_CPDBAS_Mutagenicity>
active

>  <TD50_Rat_mg>
16.4

>  <TD50_Rat_mmol>
0.0645

>  <ActivityScore_CPDBAS_Rat>
38

>  <TD50_Rat_Note>
TD50 is harmonic mean of more than one positive test

>  <TargetSites_Rat_Male>
thyroid gland

>  <TargetSites_Rat_Female>
thyroid gland

>  <ActivityOutcome_CPDBAS_Rat>
active

>  <TD50_Mouse_mg>
207

>  <TD50_Mouse_mmol>
0.814

>  <ActivityScore_CPDBAS_Mouse>
29

>  <TargetSites_Mouse_Male>
no positive results

>  <TargetSites_Mouse_Female>
liver

>  <ActivityOutcome_CPDBAS_Mouse>
active

>  <ActivityOutcome_CPDBAS_SingleCellCall>
active

>  <ActivityOutcome_CPDBAS_MultiCellCall>
active

>  <ActivityOutcome_CPDBAS_MultiCellCall_Details>
multisite active; multisex active; multispecies active

>  <NTP_TechnicalReport>
TR 186

>  <ChemicalPage_URL>
http://potency.berkeley.edu/chempages/4,4'-METHYLENEBIS(N,N-DIMETHYL)BENZENAMINE.html

$$$$



 25 26  0  0  0  0  0  0  0  0999 V2000
    6.9120   -6.6529    0.0000 O   0  0  0  0  0  0  0  0  0  0  0  0
    6.9120   -5.3265    0.0000 C   0  0  0  0  0  0  0  0  0  0  0  0
    5.7617   -4.6633    0.0000 C   0  0  0  0  0  0  0  0  0  0  0  0
    5.7617   -3.3265    0.0000 C   0  0  0  0  0  0  0  0  0  0  0  0
    6.9120   -2.6632    0.0000 C   0  0  0  0  0  0  0  0  0  0  0  0
    8.0623   -3.3265    0.0000 C   0  0  0  0  0  0  0  0  0  0  0  0
    8.0623   -4.6633    0.0000 C   0  0  0  0  0  0  0  0  0  0  0  0
    9.2125   -5.3265    0.0000 C   0  0  0  0  0  0  0  0  0  0  0  0
   10.3628   -5.9897    0.0000 C   0  0  0  0  0  0  0  0  0  0  0  0
    8.5493   -6.4768    0.0000 C   0  0  0  0  0  0  0  0  0  0  0  0
    9.8758   -4.1762    0.0000 C   0  0  0  0  0  0  0  0  0  0  0  0
    6.9120   -1.3368    0.0000 C   0  0  0  0  0  0  0  0  0  0  0  0
    4.6011   -5.3265    0.0000 C   0  0  0  0  0  0  0  0  0  0  0  0
    3.4508   -4.6633    0.0000 C   0  0  0  0  0  0  0  0  0  0  0  0
    2.3005   -5.3265    0.0000 C   0  0  0  0  0  0  0  0  0  0  0  0
    1.1503   -4.6633    0.0000 C   0  0  0  0  0  0  0  0  0  0  0  0
    1.1503   -3.3265    0.0000 C   0  0  0  0  0  0  0  0  0  0  0  0
    2.3005   -2.6632    0.0000 C   0  0  0  0  0  0  0  0  0  0  0  0
    3.4508   -3.3265    0.0000 C   0  0  0  0  0  0  0  0  0  0  0  0
    4.6011   -2.6632    0.0000 O   0  0  0  0  0  0  0  0  0  0  0  0
    2.3005   -1.3368    0.0000 C   0  0  0  0  0  0  0  0  0  0  0  0
    0.9741   -1.3368    0.0000 C   0  0  0  0  0  0  0  0  0  0  0  0
    2.3005    0.0000    0.0000 C   0  0  0  0  0  0  0  0  0  0  0  0
    3.6374   -1.3368    0.0000 C   0  0  0  0  0  0  0  0  0  0  0  0
    0.0000   -5.3265    0.0000 C   0  0  0  0  0  0  0  0  0  0  0  0
  1  2  1  0  0  0  0
  2  3  2  0  0  0  0
  2  7  1  0  0  0  0
  3  4  1  0  0  0  0
  3 13  1  0  0  0  0
  4  5  2  0  0  0  0
  5  6  1  0  0  0  0
  5 12  1  0  0  0  0
  6  7  2  0  0  0  0
  7  8  1  0  0  0  0
  8  9  1  0  0  0  0
  8 10  1  0  0  0  0
  8 11  1  0  0  0  0
 13 14  1  0  0  0  0
 14 15  2  0  0  0  0
 14 19  1  0  0  0  0
 15 16  1  0  0  0  0
 16 17  2  0  0  0  0
 16 25  1  0  0  0  0
 17 18  1  0  0  0  0
 18 19  2  0  0  0  0
 18 21  1  0  0  0  0
 19 20  1  0  0  0  0
 21 22  1  0  0  0  0
 21 23  1  0  0  0  0
 21 24  1  0  0  0  0
M  END
>  <DSSTox_RID>
20870

>  <DSSTox_CID>
870

>  <DSSTox_Generic_SID>
20870

>  <DSSTox_FileID>
910_CPDBAS_v5d

>  <STRUCTURE_Formula>
C23H32O2

>  <STRUCTURE_MolecularWeight>
340.499

>  <STRUCTURE_ChemicalType>
defined organic

>  <STRUCTURE_TestedForm_DefinedOrganic>
parent

>  <STRUCTURE_Shown>
tested chemical

>  <TestSubstance_ChemicalName>
2,2'-Methylenebis(4-methyl-6-tert-butylphenol)

>  <TestSubstance_CASRN>
119-47-1

>  <TestSubstance_Description>
single chemical compound

>  <STRUCTURE_ChemicalName_IUPAC>
2,2'-methanediylbis[6-(1,1-dimethylethyl)-4-methylphenol]

>  <STRUCTURE_SMILES>
OC1=C(C=C(C=C1C(C)(C)C)C)CC2=CC(=CC(=C2O)C(C)(C)C)C

>  <STRUCTURE_Parent_SMILES>
OC1=C(C=C(C=C1C(C)(C)C)C)CC2=CC(=CC(=C2O)C(C)(C)C)C

>  <STRUCTURE_InChI>
InChI=1/C23H32O2/c1-14-9-16(20(24)18(11-14)22(3,4)5)13-17-10-15(2)12-19(21(17)25)23(6,7)8/h9-12,24-25H,13H2,1-8H3

>  <STRUCTURE_InChIKey>
KGRVJHAUYBGFFP-UHFFFAOYAD

>  <StudyType>
Carcinogenicity

>  <Endpoint>
TD50; Tumor Target Sites

>  <Species>
rat

>  <ActivityScore_CPDBAS_Rat>
0

>  <TD50_Rat_Note>
no positive results

>  <TargetSites_Rat_Male>
no positive results

>  <TargetSites_Rat_Female>
no positive results

>  <ActivityOutcome_CPDBAS_Rat>
inactive

>  <ActivityOutcome_CPDBAS_SingleCellCall>
inactive

>  <ActivityOutcome_CPDBAS_MultiCellCall>
inactive

>  <ActivityOutcome_CPDBAS_MultiCellCall_Details>
multisex inactive

>  <ChemicalPage_URL>
http://potency.berkeley.edu/chempages/2,2'-METHYLENEBIS(4-METHYL-6-tert-BUTYLPHENOL).html

$$$$



  6  5  0  0  0  0  0  0  0  0999 V2000
    3.9905   -2.3025    0.0000 C   0  0  0  0  0  0  0  0  0  0  0  0
    3.3240   -1.1492    0.0000 C   0  0  0  0  0  0  0  0  0  0  0  0
    1.9952   -1.1492    0.0000 C   0  0  0  0  0  0  0  0  0  0  0  0
    1.3288    0.0000    0.0000 C   0  0  0  0  0  0  0  0  0  0  0  0
    1.3288   -2.3025    0.0000 N   0  0  0  0  0  0  0  0  0  0  0  0
    0.0000   -2.3025    0.0000 O   0  0  0  0  0  0  0  0  0  0  0  0
  1  2  1  0  0  0  0
  2  3  1  0  0  0  0
  3  4  1  0  0  0  0
  3  5  2  0  0  0  0
  5  6  1  0  0  0  0
M  END
>  <DSSTox_RID>
40807

>  <DSSTox_CID>
1821

>  <DSSTox_Generic_SID>
21821

>  <DSSTox_FileID>
912_CPDBAS_v5d

>  <STRUCTURE_Formula>
C4H9NO

>  <STRUCTURE_MolecularWeight>
87.1204

>  <STRUCTURE_ChemicalType>
defined organic

>  <STRUCTURE_TestedForm_DefinedOrganic>
parent

>  <STRUCTURE_Shown>
tested chemical

>  <TestSubstance_ChemicalName>
Methylethylketoxime

>  <TestSubstance_CASRN>
96-29-7

>  <TestSubstance_Description>
single chemical compound

>  <STRUCTURE_ChemicalName_IUPAC>
(2E)-butan-2-one oxime

>  <STRUCTURE_SMILES>
CCC(C)=NO

>  <STRUCTURE_Parent_SMILES>
CCC(C)=NO

>  <STRUCTURE_InChI>
InChI=1/C4H9NO/c1-3-4(2)5-6/h6H,3H2,1-2H3/b5-4+

>  <STRUCTURE_InChIKey>
WHIVNJATOVLWBW-SNAWJCMRBX

>  <StudyType>
Carcinogenicity

>  <Endpoint>
TD50; Tumor Target Sites

>  <Species>
rat; mouse

>  <TD50_Rat_mg>
74.5

>  <TD50_Rat_mmol>
0.855

>  <ActivityScore_CPDBAS_Rat>
26

>  <TargetSites_Rat_Male>
liver

>  <TargetSites_Rat_Female>
no positive results

>  <ActivityOutcome_CPDBAS_Rat>
active

>  <TD50_Mouse_mg>
534

>  <TD50_Mouse_mmol>
6.13

>  <ActivityScore_CPDBAS_Mouse>
19

>  <TargetSites_Mouse_Male>
liver

>  <TargetSites_Mouse_Female>
no positive results

>  <ActivityOutcome_CPDBAS_Mouse>
active

>  <ActivityOutcome_CPDBAS_SingleCellCall>
active

>  <ActivityOutcome_CPDBAS_MultiCellCall>
active

>  <ActivityOutcome_CPDBAS_MultiCellCall_Details>
multispecies active

>  <Note_CPDBAS>
Rat added v5a; Mouse added v5a; chemical added v5a

>  <ChemicalPage_URL>
http://potency.berkeley.edu/chempages/METHYLETHYLKETOXIME.html

$$$$



 13 13  0  0  0  0  0  0  0  0999 V2000
    1.9945    0.0000    0.0000 O   0  0  0  0  0  0  0  0  0  0  0  0
    0.6622    0.0000    0.0000 C   0  0  0  0  0  0  0  0  0  0  0  0
    2.6567   -1.1488    0.0000 C   0  0  0  0  0  0  0  0  0  0  0  0
    3.9890   -1.1488    0.0000 C   0  0  0  0  0  0  0  0  0  0  0  0
    4.6512   -2.3057    0.0000 C   0  0  0  0  0  0  0  0  0  0  0  0
    5.9836   -2.3057    0.0000 C   0  0  0  0  0  0  0  0  0  0  0  0
    6.6457   -3.4545    0.0000 C   0  0  0  0  0  0  0  0  0  0  0  0
    7.9781   -3.4545    0.0000 C   0  0  0  0  0  0  0  0  0  0  0  0
    3.9890   -3.4545    0.0000 C   0  0  0  0  0  0  0  0  0  0  0  0
    2.6567   -3.4545    0.0000 C   0  0  0  0  0  0  0  0  0  0  0  0
    1.9945   -2.3057    0.0000 C   0  0  0  0  0  0  0  0  0  0  0  0
    0.6622   -2.3057    0.0000 O   0  0  0  0  0  0  0  0  0  0  0  0
    0.0000   -3.4545    0.0000 C   0  0  0  0  0  0  0  0  0  0  0  0
  1  2  1  0  0  0  0
  1  3  1  0  0  0  0
  3  4  2  0  0  0  0
  3 11  1  0  0  0  0
  4  5  1  0  0  0  0
  5  6  1  0  0  0  0
  5  9  2  0  0  0  0
  6  7  1  0  0  0  0
  7  8  2  0  0  0  0
  9 10  1  0  0  0  0
 10 11  2  0  0  0  0
 11 12  1  0  0  0  0
 12 13  1  0  0  0  0
M  END
>  <DSSTox_RID>
40808

>  <DSSTox_CID>
5607

>  <DSSTox_Generic_SID>
25607

>  <DSSTox_FileID>
913_CPDBAS_v5d

>  <STRUCTURE_Formula>
C11H14O2

>  <STRUCTURE_MolecularWeight>
178.2277

>  <STRUCTURE_ChemicalType>
defined organic

>  <STRUCTURE_TestedForm_DefinedOrganic>
parent

>  <STRUCTURE_Shown>
tested chemical

>  <TestSubstance_ChemicalName>
Methyleugenol

>  <TestSubstance_CASRN>
93-15-2

>  <TestSubstance_Description>
single chemical compound

>  <STRUCTURE_ChemicalName_IUPAC>
4-allyl-1,2-dimethoxybenzene

>  <STRUCTURE_SMILES>
O(C)c1cc(CC=C)ccc1OC

>  <STRUCTURE_Parent_SMILES>
O(C)c1cc(CC=C)ccc1OC

>  <STRUCTURE_InChI>
InChI=1/C11H14O2/c1-4-5-9-6-7-10(12-2)11(8-9)13-3/h4,6-8H,1,5H2,2-3H3

>  <STRUCTURE_InChIKey>
ZYEMGPIYFIJGTP-UHFFFAOYAJ

>  <StudyType>
Carcinogenicity

>  <Endpoint>
TD50; Tumor Target Sites

>  <Species>
rat; mouse

>  <ActivityOutcome_CPDBAS_Mutagenicity>
inactive

>  <TD50_Rat_mg>
19.7

>  <TD50_Rat_mmol>
0.111

>  <ActivityScore_CPDBAS_Rat>
36

>  <TD50_Rat_Note>
TD50 is harmonic mean of more than one positive test

>  <TargetSites_Rat_Male>
kidney; liver; mammary gland; peritoneal cavity; stomach; subcutaneous tissue

>  <TargetSites_Rat_Female>
liver; stomach

>  <ActivityOutcome_CPDBAS_Rat>
active

>  <TD50_Mouse_mg>
19.3

>  <TD50_Mouse_mmol>
0.108

>  <ActivityScore_CPDBAS_Mouse>
39

>  <TD50_Mouse_Note>
TD50 is harmonic mean of more than one positive test

>  <TargetSites_Mouse_Male>
liver; stomach

>  <TargetSites_Mouse_Female>
liver

>  <ActivityOutcome_CPDBAS_Mouse>
active

>  <ActivityOutcome_CPDBAS_SingleCellCall>
active

>  <ActivityOutcome_CPDBAS_MultiCellCall>
active

>  <ActivityOutcome_CPDBAS_MultiCellCall_Details>
multisite active; multisex active; multispecies active

>  <Note_CPDBAS>
Rat added v5a; Mouse added v5a; Mutagenicity_SAL_CPDB added v5a; chemical added v5a

>  <ChemicalPage_URL>
http://potency.berkeley.edu/chempages/METHYLEUGENOL.html

$$$$



  5  4  0  0  0  0  0  0  0  0999 V2000
    1.1511    0.0000    0.0000 N   0  0  0  0  0  0  0  0  0  0  0  0
    1.1511   -1.3308    0.0000 C   0  0  0  0  0  0  0  0  0  0  0  0
    0.0000   -1.9945    0.0000 N   0  0  0  0  0  0  0  0  0  0  0  0
    2.3056   -1.9945    0.0000 N   0  0  0  0  0  0  0  0  0  0  0  0
    3.4567   -1.3308    0.0000 C   0  0  0  0  0  0  0  0  0  0  0  0
  1  2  2  0  0  0  0
  2  3  1  0  0  0  0
  2  4  1  0  0  0  0
  4  5  1  0  0  0  0
M  END
>  <DSSTox_RID>
20872

>  <DSSTox_CID>
872

>  <DSSTox_Generic_SID>
20872

>  <DSSTox_FileID>
914_CPDBAS_v5d

>  <STRUCTURE_Formula>
C2H7N3

>  <STRUCTURE_MolecularWeight>
73.0974

>  <STRUCTURE_ChemicalType>
defined organic

>  <STRUCTURE_TestedForm_DefinedOrganic>
parent

>  <STRUCTURE_Shown>
tested chemical

>  <TestSubstance_ChemicalName>
Methylguanidine

>  <TestSubstance_CASRN>
471-29-4

>  <TestSubstance_Description>
single chemical compound

>  <STRUCTURE_ChemicalName_IUPAC>
1-methylguanidine

>  <STRUCTURE_SMILES>
N=C(N)NC

>  <STRUCTURE_Parent_SMILES>
N=C(N)NC

>  <STRUCTURE_InChI>
InChI=1/C2H7N3/c1-5-2(3)4/h1H3,(H4,3,4,5)/f/h3,5H,4H2

>  <STRUCTURE_InChIKey>
CHJJGSNFBQVOTG-RQQVANGRCN

>  <StudyType>
Carcinogenicity

>  <Endpoint>
TD50; Tumor Target Sites

>  <Species>
rat

>  <ActivityScore_CPDBAS_Rat>
0

>  <TD50_Rat_Note>
no positive results

>  <TargetSites_Rat_Male>
no positive results

>  <ActivityOutcome_CPDBAS_Rat>
inactive

>  <ActivityOutcome_CPDBAS_SingleCellCall>
inactive

>  <ChemicalPage_URL>
http://potency.berkeley.edu/chempages/METHYLGUANIDINE.html

$$$$



 12 13  0  0  0  0  0  0  0  0999 V2000
    2.6597   -3.4409    0.0000 C   0  0  0  0  0  0  0  0  0  0  0  0
    1.9933   -2.2920    0.0000 C   0  0  0  0  0  0  0  0  0  0  0  0
    0.6664   -2.2920    0.0000 C   0  0  0  0  0  0  0  0  0  0  0  0
    0.0000   -3.4409    0.0000 N   0  0  0  0  0  0  0  0  0  0  0  0
    0.6664   -4.5956    0.0000 C   0  0  0  0  0  0  0  0  0  0  0  0
    1.9933   -4.5956    0.0000 N   0  0  0  0  0  0  0  0  0  0  0  0
    0.0000   -5.7445    0.0000 N   0  0  0  0  0  0  0  0  0  0  0  0
    0.0000   -1.1374    0.0000 O   0  0  0  0  0  0  0  0  0  0  0  0
    2.8837   -1.2982    0.0000 N   0  0  0  0  0  0  0  0  0  0  0  0
    2.6080    0.0000    0.0000 C   0  0  0  0  0  0  0  0  0  0  0  0
    4.1015   -1.8440    0.0000 C   0  0  0  0  0  0  0  0  0  0  0  0
    3.9579   -3.1652    0.0000 N   0  0  0  0  0  0  0  0  0  0  0  0
  1  2  2  0  0  0  0
  1  6  1  0  0  0  0
  1 12  1  0  0  0  0
  2  3  1  0  0  0  0
  2  9  1  0  0  0  0
  3  4  1  0  0  0  0
  3  8  2  0  0  0  0
  4  5  1  0  0  0  0
  5  6  2  0  0  0  0
  5  7  1  0  0  0  0
  9 10  1  0  0  0  0
  9 11  1  0  0  0  0
 11 12  2  0  0  0  0
M  END
>  <DSSTox_RID>
20873

>  <DSSTox_CID>
873

>  <DSSTox_Generic_SID>
20873

>  <DSSTox_FileID>
915_CPDBAS_v5d

>  <STRUCTURE_Formula>
C6H7N5O

>  <STRUCTURE_MolecularWeight>
165.1542

>  <STRUCTURE_ChemicalType>
defined organic

>  <STRUCTURE_TestedForm_DefinedOrganic>
parent

>  <STRUCTURE_Shown>
tested chemical

>  <TestSubstance_ChemicalName>
7-Methylguanine

>  <TestSubstance_CASRN>
578-76-7

>  <TestSubstance_Description>
single chemical compound

>  <ChemicalNote>
tautomers

>  <STRUCTURE_ChemicalName_IUPAC>
2-amino-7-methyl-1,7-dihydro-6H-purin-6-one

>  <STRUCTURE_SMILES>
C12=C(C(NC(=N1)N)=O)N(C)C=N2

>  <STRUCTURE_Parent_SMILES>
C12=C(C(NC(=N1)N)=O)N(C)C=N2

>  <STRUCTURE_InChI>
InChI=1/C6H7N5O/c1-11-2-8-4-3(11)5(12)10-6(7)9-4/h2H,1H3,(H3,7,9,10,12)/f/h10H,7H2

>  <STRUCTURE_InChIKey>
FZWGECJQACGGTI-HYFQGNCWCY

>  <StudyType>
Carcinogenicity

>  <Endpoint>
TD50; Tumor Target Sites

>  <Species>
rat

>  <ActivityScore_CPDBAS_Rat>
0

>  <TD50_Rat_Note>
no positive results

>  <TargetSites_Rat_BothSexes>
no positive results

>  <ActivityOutcome_CPDBAS_Rat>
inactive

>  <ActivityOutcome_CPDBAS_SingleCellCall>
inactive

>  <Note_CPDBAS>
TD50_Rat modified v3a

>  <ChemicalPage_URL>
http://potency.berkeley.edu/chempages/7-METHYLGUANINE.html

$$$$



  3  2  0  0  0  0  0  0  0  0999 V2000
    2.3030   -0.6656    0.0000 C   0  0  0  0  0  0  0  0  0  0  0  0
    1.1515    0.0000    0.0000 N   0  0  0  0  0  0  0  0  0  0  0  0
    0.0000   -0.6656    0.0000 N   0  0  0  0  0  0  0  0  0  0  0  0
  1  2  1  0  0  0  0
  2  3  1  0  0  0  0
M  END
>  <DSSTox_RID>
20874

>  <DSSTox_CID>
874

>  <DSSTox_Generic_SID>
20874

>  <DSSTox_FileID>
916_CPDBAS_v5d

>  <STRUCTURE_Formula>
CH6N2

>  <STRUCTURE_MolecularWeight>
46.0717

>  <STRUCTURE_ChemicalType>
defined organic

>  <STRUCTURE_TestedForm_DefinedOrganic>
parent

>  <STRUCTURE_Shown>
tested chemical

>  <TestSubstance_ChemicalName>
Methylhydrazine

>  <TestSubstance_CASRN>
60-34-4

>  <TestSubstance_Description>
single chemical compound

>  <STRUCTURE_ChemicalName_IUPAC>
methylhydrazine

>  <STRUCTURE_SMILES>
CNN

>  <STRUCTURE_Parent_SMILES>
CNN

>  <STRUCTURE_InChI>
InChI=1/CH6N2/c1-3-2/h3H,2H2,1H3

>  <STRUCTURE_InChIKey>
HDZGCSFEDULWCS-UHFFFAOYAV

>  <StudyType>
Carcinogenicity

>  <Endpoint>
TD50; Tumor Target Sites

>  <Species>
mouse; hamster

>  <ActivityOutcome_CPDBAS_Mutagenicity>
active

>  <TD50_Mouse_mg>
7.55

>  <TD50_Mouse_mmol>
0.164

>  <ActivityScore_CPDBAS_Mouse>
37

>  <TD50_Mouse_Note>
TD50 is harmonic mean of more than one positive test

>  <TargetSites_Mouse_Male>
liver

>  <TargetSites_Mouse_Female>
liver; lung

>  <ActivityOutcome_CPDBAS_Mouse>
active

>  <TD50_Hamster_mg>
11.5

>  <TD50_Hamster_mmol>
0.25

>  <ActivityScore_CPDBAS_Hamster>
41

>  <TD50_Hamster_Note>
TD50 is harmonic mean of more than one positive test

>  <TargetSites_Hamster_Male>
large intestine; liver

>  <TargetSites_Hamster_Female>
large intestine; liver

>  <ActivityOutcome_CPDBAS_Hamster>
active

>  <ActivityOutcome_CPDBAS_SingleCellCall>
active

>  <ActivityOutcome_CPDBAS_MultiCellCall>
active

>  <ActivityOutcome_CPDBAS_MultiCellCall_Details>
multisite active; multisex active; multispecies active

>  <ChemicalPage_URL>
http://potency.berkeley.edu/chempages/METHYLHYDRAZINE.html

$$$$



  9  9  0  0  0  0  0  0  0  0999 V2000
    0.0000   -2.6589    0.0000 C   0  0  0  0  0  0  0  0  0  0  0  0
    1.1520   -1.9953    0.0000 C   0  0  0  0  0  0  0  0  0  0  0  0
    1.1520   -0.6636    0.0000 C   0  0  0  0  0  0  0  0  0  0  0  0
    2.3041    0.0000    0.0000 C   0  0  0  0  0  0  0  0  0  0  0  0
    3.4561   -0.6636    0.0000 C   0  0  0  0  0  0  0  0  0  0  0  0
    3.4561   -1.9953    0.0000 C   0  0  0  0  0  0  0  0  0  0  0  0
    2.3041   -2.6589    0.0000 C   0  0  0  0  0  0  0  0  0  0  0  0
    4.6082   -2.6589    0.0000 O   0  0  0  0  0  0  0  0  0  0  0  0
    0.0000    0.0000    0.0000 O   0  0  0  0  0  0  0  0  0  0  0  0
  1  2  1  0  0  0  0
  2  3  2  0  0  0  0
  2  7  1  0  0  0  0
  3  4  1  0  0  0  0
  3  9  1  0  0  0  0
  4  5  2  0  0  0  0
  5  6  1  0  0  0  0
  6  7  2  0  0  0  0
  6  8  1  0  0  0  0
M  END
>  <DSSTox_RID>
20876

>  <DSSTox_CID>
876

>  <DSSTox_Generic_SID>
20876

>  <DSSTox_FileID>
918_CPDBAS_v5d

>  <STRUCTURE_Formula>
C7H8O2

>  <STRUCTURE_MolecularWeight>
124.139

>  <STRUCTURE_ChemicalType>
defined organic

>  <STRUCTURE_TestedForm_DefinedOrganic>
parent

>  <STRUCTURE_Shown>
tested chemical

>  <TestSubstance_ChemicalName>
Methylhydroquinone

>  <TestSubstance_CASRN>
95-71-6

>  <TestSubstance_Description>
single chemical compound

>  <STRUCTURE_ChemicalName_IUPAC>
2-methylbenzene-1,4-diol

>  <STRUCTURE_SMILES>
CC1=C(C=CC(=C1)O)O

>  <STRUCTURE_Parent_SMILES>
CC1=C(C=CC(=C1)O)O

>  <STRUCTURE_InChI>
InChI=1/C7H8O2/c1-5-4-6(8)2-3-7(5)9/h2-4,8-9H,1H3

>  <STRUCTURE_InChIKey>
CNHDIAIOKMXOLK-UHFFFAOYAG

>  <StudyType>
Carcinogenicity

>  <Endpoint>
TD50; Tumor Target Sites

>  <Species>
rat

>  <ActivityScore_CPDBAS_Rat>
0

>  <TD50_Rat_Note>
no positive results

>  <TargetSites_Rat_Male>
no positive results

>  <ActivityOutcome_CPDBAS_Rat>
inactive

>  <ActivityOutcome_CPDBAS_SingleCellCall>
inactive

>  <ChemicalPage_URL>
http://potency.berkeley.edu/chempages/METHYLHYDROQUINONE.html

$$$$



  6  6  0  0  0  0  0  0  0  0999 V2000
    0.0000   -1.0738    0.0000 C   0  0  0  0  0  0  0  0  0  0  0  0
    1.3304   -1.0738    0.0000 C   0  0  0  0  0  0  0  0  0  0  0  0
    2.1104    0.0000    0.0000 N   0  0  0  0  0  0  0  0  0  0  0  0
    3.3767   -0.4086    0.0000 C   0  0  0  0  0  0  0  0  0  0  0  0
    3.3767   -1.7390    0.0000 C   0  0  0  0  0  0  0  0  0  0  0  0
    2.1104   -2.1509    0.0000 N   0  0  0  0  0  0  0  0  0  0  0  0
  1  2  1  0  0  0  0
  2  3  2  0  0  0  0
  2  6  1  0  0  0  0
  3  4  1  0  0  0  0
  4  5  2  0  0  0  0
  5  6  1  0  0  0  0
M  END
>  <DSSTox_RID>
40809

>  <DSSTox_CID>
2107

>  <DSSTox_Generic_SID>
22107

>  <DSSTox_FileID>
919_CPDBAS_v5d

>  <STRUCTURE_Formula>
C4H6N2

>  <STRUCTURE_MolecularWeight>
82.1038

>  <STRUCTURE_ChemicalType>
defined organic

>  <STRUCTURE_TestedForm_DefinedOrganic>
parent

>  <STRUCTURE_Shown>
tested chemical

>  <TestSubstance_ChemicalName>
2-Methylimidazole

>  <TestSubstance_CASRN>
693-98-1

>  <TestSubstance_Description>
single chemical compound

>  <STRUCTURE_ChemicalName_IUPAC>
2-methyl-1H-imidazole

>  <STRUCTURE_SMILES>
CC1=NC=CN1

>  <STRUCTURE_Parent_SMILES>
CC1=NC=CN1

>  <STRUCTURE_InChI>
InChI=1/C4H6N2/c1-4-5-2-3-6-4/h2-3H,1H3,(H,5,6)/f/h5H

>  <STRUCTURE_InChIKey>
LXBGSDVWAMZHDD-JSWHHWTPCT

>  <StudyType>
Carcinogenicity

>  <Endpoint>
TD50; Tumor Target Sites

>  <Species>
rat; mouse

>  <ActivityOutcome_CPDBAS_Mutagenicity>
inactive

>  <TD50_Rat_mg>
868

>  <TD50_Rat_mmol>
10.6

>  <ActivityScore_CPDBAS_Rat>
15

>  <TD50_Rat_Note>
TD50 is harmonic mean of more than one positive test

>  <TargetSites_Rat_Male>
thyroid gland

>  <TargetSites_Rat_Female>
thyroid gland

>  <ActivityOutcome_CPDBAS_Rat>
active

>  <TD50_Mouse_mg>
782

>  <TD50_Mouse_mmol>
9.52

>  <ActivityScore_CPDBAS_Mouse>
17

>  <TD50_Mouse_Note>
TD50 is harmonic mean of more than one positive test

>  <TargetSites_Mouse_Male>
liver; thyroid gland

>  <TargetSites_Mouse_Female>
liver

>  <ActivityOutcome_CPDBAS_Mouse>
active

>  <ActivityOutcome_CPDBAS_SingleCellCall>
active

>  <ActivityOutcome_CPDBAS_MultiCellCall>
active

>  <ActivityOutcome_CPDBAS_MultiCellCall_Details>
multisite active; multisex active; multispecies active

>  <Note_CPDBAS>
Rat added v5a; Mouse added v5a; Mutagenicity_SAL_CPDB added v5a; chemical added v5a

>  <ChemicalPage_URL>
http://potency.berkeley.edu/chempages/2-METHYLIMIDAZOLE.html

$$$$



 11 12  0  0  0  0  0  0  0  0999 V2000
    0.0000   -2.6579    0.0000 C   0  0  0  0  0  0  0  0  0  0  0  0
    1.1497   -1.9969    0.0000 C   0  0  0  0  0  0  0  0  0  0  0  0
    2.3041   -2.6579    0.0000 C   0  0  0  0  0  0  0  0  0  0  0  0
    3.4538   -1.9969    0.0000 C   0  0  0  0  0  0  0  0  0  0  0  0
    3.4538   -0.6656    0.0000 C   0  0  0  0  0  0  0  0  0  0  0  0
    2.3041    0.0000    0.0000 C   0  0  0  0  0  0  0  0  0  0  0  0
    1.1497   -0.6656    0.0000 C   0  0  0  0  0  0  0  0  0  0  0  0
    4.6082   -2.6579    0.0000 C   0  0  0  0  0  0  0  0  0  0  0  0
    4.6082   -3.9891    0.0000 C   0  0  0  0  0  0  0  0  0  0  0  0
    3.4538   -4.6548    0.0000 C   0  0  0  0  0  0  0  0  0  0  0  0
    2.3041   -3.9891    0.0000 C   0  0  0  0  0  0  0  0  0  0  0  0
  1  2  1  0  0  0  0
  2  3  2  0  0  0  0
  2  7  1  0  0  0  0
  3  4  1  0  0  0  0
  3 11  1  0  0  0  0
  4  5  2  0  0  0  0
  4  8  1  0  0  0  0
  5  6  1  0  0  0  0
  6  7  2  0  0  0  0
  8  9  2  0  0  0  0
  9 10  1  0  0  0  0
 10 11  2  0  0  0  0
M  END
>  <DSSTox_RID>
20877

>  <DSSTox_CID>
877

>  <DSSTox_Generic_SID>
20877

>  <DSSTox_FileID>
920_CPDBAS_v5d

>  <STRUCTURE_Formula>
C11H10

>  <STRUCTURE_MolecularWeight>
142.1971

>  <STRUCTURE_ChemicalType>
defined organic

>  <STRUCTURE_TestedForm_DefinedOrganic>
parent

>  <STRUCTURE_Shown>
tested chemical

>  <TestSubstance_ChemicalName>
1-Methylnaphthalene

>  <TestSubstance_CASRN>
90-12-0

>  <TestSubstance_Description>
single chemical compound

>  <STRUCTURE_ChemicalName_IUPAC>
1-methylnaphthalene

>  <STRUCTURE_SMILES>
CC1=C2C(=CC=C1)C=CC=C2

>  <STRUCTURE_Parent_SMILES>
CC1=CC=CC2=C1C=CC=C2

>  <STRUCTURE_InChI>
InChI=1/C11H10/c1-9-5-4-7-10-6-2-3-8-11(9)10/h2-8H,1H3

>  <STRUCTURE_InChIKey>
QPUYECUOLPXSFR-UHFFFAOYAD

>  <StudyType>
Carcinogenicity

>  <Endpoint>
TD50; Tumor Target Sites

>  <Species>
mouse

>  <ActivityOutcome_CPDBAS_Mutagenicity>
inactive

>  <ActivityScore_CPDBAS_Mouse>
0

>  <TD50_Mouse_Note>
no positive results

>  <TargetSites_Mouse_Male>
no positive results

>  <TargetSites_Mouse_Female>
no positive results

>  <ActivityOutcome_CPDBAS_Mouse>
inactive

>  <ActivityOutcome_CPDBAS_SingleCellCall>
inactive

>  <ActivityOutcome_CPDBAS_MultiCellCall>
inactive

>  <ActivityOutcome_CPDBAS_MultiCellCall_Details>
multisex inactive

>  <ChemicalPage_URL>
http://potency.berkeley.edu/chempages/1-METHYLNAPHTHALENE.html

$$$$



 11 12  0  0  0  0  0  0  0  0999 V2000
    2.2832   -0.6556    0.0000 C   0  0  0  0  0  0  0  0  0  0  0  0
    2.2832   -2.0071    0.0000 C   0  0  0  0  0  0  0  0  0  0  0  0
    1.1445    0.0000    0.0000 C   0  0  0  0  0  0  0  0  0  0  0  0
    1.1445   -2.6627    0.0000 C   0  0  0  0  0  0  0  0  0  0  0  0
    0.0000   -0.6556    0.0000 C   0  0  0  0  0  0  0  0  0  0  0  0
    0.0000   -2.0071    0.0000 C   0  0  0  0  0  0  0  0  0  0  0  0
    3.4449    0.0000    0.0000 C   0  0  0  0  0  0  0  0  0  0  0  0
    4.5893   -0.6729    0.0000 C   0  0  0  0  0  0  0  0  0  0  0  0
    3.4449   -2.6627    0.0000 C   0  0  0  0  0  0  0  0  0  0  0  0
    4.5893   -2.0071    0.0000 C   0  0  0  0  0  0  0  0  0  0  0  0
    5.7510    0.0000    0.0000 C   0  0  0  0  0  0  0  0  0  0  0  0
  1  3  2  0  0  0  0
  1  7  1  0  0  0  0
  1  2  1  0  0  0  0
  2  4  2  0  0  0  0
  2  9  1  0  0  0  0
  3  5  1  0  0  0  0
  4  6  1  0  0  0  0
  5  6  2  0  0  0  0
  7  8  2  0  0  0  0
  8 10  1  0  0  0  0
  8 11  1  0  0  0  0
  9 10  2  0  0  0  0
M  END
>  <DSSTox_RID>
20878

>  <DSSTox_CID>
878

>  <DSSTox_Generic_SID>
20878

>  <DSSTox_FileID>
921_CPDBAS_v5d

>  <STRUCTURE_Formula>
C11H10

>  <STRUCTURE_MolecularWeight>
142.1971

>  <STRUCTURE_ChemicalType>
defined organic

>  <STRUCTURE_TestedForm_DefinedOrganic>
parent

>  <STRUCTURE_Shown>
tested chemical

>  <TestSubstance_ChemicalName>
2-Methylnaphthalene

>  <TestSubstance_CASRN>
91-57-6

>  <TestSubstance_Description>
single chemical compound

>  <STRUCTURE_ChemicalName_IUPAC>
2-methylnaphthalene

>  <STRUCTURE_SMILES>
CC2=CC1=CC=CC=C1C=C2

>  <STRUCTURE_Parent_SMILES>
CC2=CC1=CC=CC=C1C=C2

>  <STRUCTURE_InChI>
InChI=1/C11H10/c1-9-6-7-10-4-2-3-5-11(10)8-9/h2-8H,1H3

>  <STRUCTURE_InChIKey>
QIMMUPPBPVKWKM-UHFFFAOYAY

>  <StudyType>
Carcinogenicity

>  <Endpoint>
TD50; Tumor Target Sites

>  <Species>
mouse

>  <ActivityScore_CPDBAS_Mouse>
0

>  <TD50_Mouse_Note>
no positive results

>  <TargetSites_Mouse_Male>
no positive results

>  <TargetSites_Mouse_Female>
no positive results

>  <ActivityOutcome_CPDBAS_Mouse>
inactive

>  <ActivityOutcome_CPDBAS_SingleCellCall>
inactive

>  <ActivityOutcome_CPDBAS_MultiCellCall>
inactive

>  <ActivityOutcome_CPDBAS_MultiCellCall_Details>
multisex inactive

>  <Note_CPDBAS>
Mouse added v3a; chemical added v3a

>  <ChemicalPage_URL>
http://potency.berkeley.edu/chempages/2-METHYLNAPHTHALENE.html

$$$$



  5  4  0  0  0  0  0  0  0  0999 V2000
    0.0000   -1.3308    0.0000 C   0  0  0  0  0  0  0  0  0  0  0  0
    1.1511   -1.9945    0.0000 N   0  0  0  0  0  0  0  0  0  0  0  0
    2.3056   -1.3308    0.0000 N   0  3  0  0  0  0  0  0  0  0  0  0
    2.3056    0.0000    0.0000 O   0  0  0  0  0  0  0  0  0  0  0  0
    3.4567   -1.9945    0.0000 O   0  5  0  0  0  0  0  0  0  0  0  0
  1  2  1  0  0  0  0
  2  3  1  0  0  0  0
  3  4  2  0  0  0  0
  3  5  1  0  0  0  0
M  END
>  <DSSTox_RID>
20879

>  <DSSTox_CID>
879

>  <DSSTox_Generic_SID>
20879

>  <DSSTox_FileID>
922_CPDBAS_v5d

>  <STRUCTURE_Formula>
CH4N2O2

>  <STRUCTURE_MolecularWeight>
76.0548

>  <STRUCTURE_ChemicalType>
defined organic

>  <STRUCTURE_TestedForm_DefinedOrganic>
parent

>  <STRUCTURE_Shown>
tested chemical

>  <TestSubstance_ChemicalName>
Methylnitramine

>  <TestSubstance_CASRN>
598-57-2

>  <TestSubstance_Description>
single chemical compound

>  <STRUCTURE_ChemicalName_IUPAC>
N-nitromethanamine

>  <STRUCTURE_SMILES>
CN[N+](=O)[O-]

>  <STRUCTURE_Parent_SMILES>
CN[N+](=O)[O-]

>  <STRUCTURE_InChI>
InChI=1/CH4N2O2/c1-2-3(4)5/h2H,1H3

>  <STRUCTURE_InChIKey>
ARCZSDSOONGBRX-UHFFFAOYAA

>  <StudyType>
Carcinogenicity

>  <Endpoint>
TD50; Tumor Target Sites

>  <Species>
rat

>  <TD50_Rat_mg>
17.4

>  <TD50_Rat_mmol>
0.229

>  <ActivityScore_CPDBAS_Rat>
32

>  <TD50_Rat_Note>
TD50 is harmonic mean of more than one positive test

>  <TargetSites_Rat_Male>
nervous system

>  <TargetSites_Rat_Female>
nervous system

>  <ActivityOutcome_CPDBAS_Rat>
active

>  <ActivityOutcome_CPDBAS_SingleCellCall>
active

>  <ActivityOutcome_CPDBAS_MultiCellCall>
active

>  <ActivityOutcome_CPDBAS_MultiCellCall_Details>
multisex active

>  <ChemicalPage_URL>
http://potency.berkeley.edu/chempages/METHYLNITRAMINE.html

$$$$



 15 15  0  0  0  0  0  0  0  0999 V2000
    3.4524   -2.6644    0.0000 C   0  0  3  0  0  0  0  0  0  0  0  0
    4.6032   -2.0009    0.0000 C   0  0  0  0  0  0  0  0  0  0  0  0
    5.7643   -2.6644    0.0000 C   0  0  0  0  0  0  0  0  0  0  0  0
    6.9151   -2.0009    0.0000 C   0  0  0  0  0  0  0  0  0  0  0  0
    8.0659   -2.6644    0.0000 N   0  0  0  0  0  0  0  0  0  0  0  0
    9.2167   -2.0009    0.0000 N   0  0  0  0  0  0  0  0  0  0  0  0
   10.3675   -2.6644    0.0000 O   0  0  0  0  0  0  0  0  0  0  0  0
    8.0659   -3.9915    0.0000 C   0  0  0  0  0  0  0  0  0  0  0  0
    3.4524   -3.9915    0.0000 O   0  0  0  0  0  0  0  0  0  0  0  0
    2.3016   -2.0009    0.0000 C   0  0  0  0  0  0  0  0  0  0  0  0
    1.1508   -2.6644    0.0000 C   0  0  0  0  0  0  0  0  0  0  0  0
    0.0000   -2.0009    0.0000 N   0  0  0  0  0  0  0  0  0  0  0  0
    0.0000   -0.6635    0.0000 C   0  0  0  0  0  0  0  0  0  0  0  0
    1.1508    0.0000    0.0000 C   0  0  0  0  0  0  0  0  0  0  0  0
    2.3016   -0.6635    0.0000 C   0  0  0  0  0  0  0  0  0  0  0  0
  1  2  1  0  0  0  0
  1  9  1  0  0  0  0
  1 10  1  0  0  0  0
  2  3  1  0  0  0  0
  3  4  1  0  0  0  0
  4  5  1  0  0  0  0
  5  6  1  0  0  0  0
  5  8  1  0  0  0  0
  6  7  2  0  0  0  0
 10 11  1  0  0  0  0
 10 15  2  0  0  0  0
 11 12  2  0  0  0  0
 12 13  1  0  0  0  0
 13 14  2  0  0  0  0
 14 15  1  0  0  0  0
M  END
>  <DSSTox_RID>
20880

>  <DSSTox_CID>
880

>  <DSSTox_Generic_SID>
20880

>  <DSSTox_FileID>
923_CPDBAS_v5d

>  <STRUCTURE_Formula>
C10H15N3O2

>  <STRUCTURE_MolecularWeight>
209.2474

>  <STRUCTURE_ChemicalType>
defined organic

>  <STRUCTURE_TestedForm_DefinedOrganic>
parent

>  <STRUCTURE_Shown>
tested chemical

>  <TestSubstance_ChemicalName>
4-(Methylnitrosamino)-1-(3-pyridyl)-1-butanol

>  <TestSubstance_CASRN>
76014-81-8

>  <TestSubstance_Description>
single chemical compound

>  <STRUCTURE_ChemicalName_IUPAC>
4-[methyl(nitroso)amino]-1-pyridin-3-ylbutan-1-ol

>  <STRUCTURE_SMILES>
C(CCCN(N=O)C)(O)C1C=NC=CC=1

>  <STRUCTURE_Parent_SMILES>
C(CCCN(N=O)C)(O)C1C=NC=CC=1

>  <STRUCTURE_InChI>
InChI=1/C10H15N3O2/c1-13(12-15)7-3-5-10(14)9-4-2-6-11-8-9/h2,4,6,8,10,14H,3,5,7H2,1H3

>  <STRUCTURE_InChIKey>
OGRXKBUCZFFSTL-UHFFFAOYAB

>  <StudyType>
Carcinogenicity

>  <Endpoint>
TD50; Tumor Target Sites

>  <Species>
rat

>  <TD50_Rat_mg>
0.103

>  <TD50_Rat_mmol>
0.000492

>  <ActivityScore_CPDBAS_Rat>
60

>  <TargetSites_Rat_Male>
lung; pancreas

>  <ActivityOutcome_CPDBAS_Rat>
active

>  <ActivityOutcome_CPDBAS_SingleCellCall>
active

>  <ActivityOutcome_CPDBAS_MultiCellCall>
active

>  <ActivityOutcome_CPDBAS_MultiCellCall_Details>
multisite active

>  <ChemicalPage_URL>
http://potency.berkeley.edu/chempages/4-(METHYLNITROSAMINO)-1-(3-PYRIDYL)-1-BUTANOL.html

$$$$



 15 15  0  0  0  0  0  0  0  0999 V2000
    3.4524   -3.9915    0.0000 O   0  0  0  0  0  0  0  0  0  0  0  0
    3.4524   -2.6644    0.0000 C   0  0  0  0  0  0  0  0  0  0  0  0
    2.3016   -2.0009    0.0000 C   0  0  0  0  0  0  0  0  0  0  0  0
    1.1508   -2.6644    0.0000 C   0  0  0  0  0  0  0  0  0  0  0  0
    0.0000   -2.0009    0.0000 C   0  0  0  0  0  0  0  0  0  0  0  0
    0.0000   -0.6635    0.0000 C   0  0  0  0  0  0  0  0  0  0  0  0
    1.1508    0.0000    0.0000 N   0  0  0  0  0  0  0  0  0  0  0  0
    2.3016   -0.6635    0.0000 C   0  0  0  0  0  0  0  0  0  0  0  0
    4.6032   -2.0009    0.0000 C   0  0  0  0  0  0  0  0  0  0  0  0
    5.7643   -2.6644    0.0000 C   0  0  0  0  0  0  0  0  0  0  0  0
    6.9151   -2.0009    0.0000 C   0  0  0  0  0  0  0  0  0  0  0  0
    8.0659   -2.6644    0.0000 N   0  0  0  0  0  0  0  0  0  0  0  0
    9.2167   -2.0009    0.0000 N   0  0  0  0  0  0  0  0  0  0  0  0
   10.3675   -2.6644    0.0000 O   0  0  0  0  0  0  0  0  0  0  0  0
    8.0659   -3.9915    0.0000 C   0  0  0  0  0  0  0  0  0  0  0  0
  1  2  2  0  0  0  0
  2  3  1  0  0  0  0
  2  9  1  0  0  0  0
  3  4  2  0  0  0  0
  3  8  1  0  0  0  0
  4  5  1  0  0  0  0
  5  6  2  0  0  0  0
  6  7  1  0  0  0  0
  7  8  2  0  0  0  0
  9 10  1  0  0  0  0
 10 11  1  0  0  0  0
 11 12  1  0  0  0  0
 12 13  1  0  0  0  0
 12 15  1  0  0  0  0
 13 14  2  0  0  0  0
M  END
>  <DSSTox_RID>
20881

>  <DSSTox_CID>
881

>  <DSSTox_Generic_SID>
20881

>  <DSSTox_FileID>
924_CPDBAS_v5d

>  <STRUCTURE_Formula>
C10H13N3O2

>  <STRUCTURE_MolecularWeight>
207.2291

>  <STRUCTURE_ChemicalType>
defined organic

>  <STRUCTURE_TestedForm_DefinedOrganic>
parent

>  <STRUCTURE_Shown>
tested chemical

>  <TestSubstance_ChemicalName>
4-(Methylnitrosamino)-1-(3-pyridyl)-1-(butanone)

>  <TestSubstance_CASRN>
64091-91-4

>  <TestSubstance_Description>
single chemical compound

>  <STRUCTURE_ChemicalName_IUPAC>
4-[methyl(nitroso)amino]-1-pyridin-3-ylbutan-1-one

>  <STRUCTURE_SMILES>
O=C(C1=CC=CN=C1)CCCN(N=O)C

>  <STRUCTURE_Parent_SMILES>
O=C(C1=CC=CN=C1)CCCN(N=O)C

>  <STRUCTURE_InChI>
InChI=1/C10H13N3O2/c1-13(12-15)7-3-5-10(14)9-4-2-6-11-8-9/h2,4,6,8H,3,5,7H2,1H3

>  <STRUCTURE_InChIKey>
FLAQQSHRLBFIEZ-UHFFFAOYAR

>  <StudyType>
Carcinogenicity

>  <Endpoint>
TD50; Tumor Target Sites

>  <Species>
rat; hamster

>  <TD50_Rat_mg>
0.0999

>  <TD50_Rat_mmol>
0.000482

>  <ActivityScore_CPDBAS_Rat>
60

>  <TD50_Rat_Note>
TD50 is harmonic mean of more than one positive test

>  <TargetSites_Rat_Male>
liver; lung; pancreas

>  <ActivityOutcome_CPDBAS_Rat>
active

>  <ActivityScore_CPDBAS_Hamster>
0

>  <TD50_Hamster_Note>
no positive results

>  <TargetSites_Hamster_Female>
no positive results

>  <ActivityOutcome_CPDBAS_Hamster>
inactive

>  <ActivityOutcome_CPDBAS_SingleCellCall>
active

>  <ActivityOutcome_CPDBAS_MultiCellCall>
active

>  <ActivityOutcome_CPDBAS_MultiCellCall_Details>
multisite active

>  <ChemicalPage_URL>
http://potency.berkeley.edu/chempages/4-(METHYLNITROSAMINO)-1-(3-PYRIDYL)-1-(BUTANONE).html

$$$$



 13 14  0  0  0  0  0  0  0  0999 V2000
    2.3039   -2.6577    0.0000 C   0  0  0  0  0  0  0  0  0  0  0  0
    2.3039   -3.9889    0.0000 C   0  0  0  0  0  0  0  0  0  0  0  0
    3.5700   -2.2481    0.0000 N   0  0  0  0  0  0  0  0  0  0  0  0
    3.5700   -4.3984    0.0000 N   0  0  0  0  0  0  0  0  0  0  0  0
    1.1496   -1.9968    0.0000 C   0  0  0  0  0  0  0  0  0  0  0  0
    1.1496   -4.6544    0.0000 N   0  0  0  0  0  0  0  0  0  0  0  0
    4.3519   -3.3233    0.0000 C   0  0  0  0  0  0  0  0  0  0  0  0
    0.0000   -2.6577    0.0000 N   0  0  0  0  0  0  0  0  0  0  0  0
    0.0000   -3.9889    0.0000 C   0  0  0  0  0  0  0  0  0  0  0  0
    1.1496   -0.6656    0.0000 N   0  0  0  0  0  0  0  0  0  0  0  0
    0.0000    0.0000    0.0000 C   0  0  0  0  0  0  0  0  0  0  0  0
    2.3039    0.0000    0.0000 N   0  0  0  0  0  0  0  0  0  0  0  0
    3.4536   -0.6656    0.0000 O   0  0  0  0  0  0  0  0  0  0  0  0
  1  2  2  0  0  0  0
  1  3  1  0  0  0  0
  1  5  1  0  0  0  0
  2  4  1  0  0  0  0
  2  6  1  0  0  0  0
  3  7  2  0  0  0  0
  4  7  1  0  0  0  0
  5  8  2  0  0  0  0
  5 10  1  0  0  0  0
  6  9  2  0  0  0  0
  8  9  1  0  0  0  0
 10 11  1  0  0  0  0
 10 12  1  0  0  0  0
 12 13  2  0  0  0  0
M  END
>  <DSSTox_RID>
20882

>  <DSSTox_CID>
882

>  <DSSTox_Generic_SID>
20882

>  <DSSTox_FileID>
925_CPDBAS_v5d

>  <STRUCTURE_Formula>
C6H6N6O

>  <STRUCTURE_MolecularWeight>
178.153

>  <STRUCTURE_ChemicalType>
defined organic

>  <STRUCTURE_TestedForm_DefinedOrganic>
parent

>  <STRUCTURE_Shown>
tested chemical

>  <TestSubstance_ChemicalName>
(N-6)-(Methylnitroso)adenine

>  <TestSubstance_CASRN>
NOCAS

>  <TestSubstance_Description>
single chemical compound

>  <ChemicalNote>
tautomers

>  <STRUCTURE_ChemicalName_IUPAC>
N-methyl-N-nitroso-9H-purin-6-amine

>  <STRUCTURE_SMILES>
O=NN(C)C1=NC=NC2=C1N=CN2

>  <STRUCTURE_Parent_SMILES>
O=NN(C)C1=NC=NC2=C1N=CN2

>  <STRUCTURE_InChI>
InChI=1/C6H6N6O/c1-12(11-13)6-4-5(8-2-7-4)9-3-10-6/h2-3H,1H3,(H,7,8,9,10)/f/h8H

>  <STRUCTURE_InChIKey>
HTWGDSKVENTDTB-FZOZFQFYCF

>  <StudyType>
Carcinogenicity

>  <Endpoint>
TD50; Tumor Target Sites

>  <Species>
mouse

>  <TD50_Mouse_mg>
18

>  <TD50_Mouse_mmol>
0.101

>  <ActivityScore_CPDBAS_Mouse>
39

>  <TargetSites_Mouse_Male>
lung

>  <TargetSites_Mouse_Female>
no positive results

>  <ActivityOutcome_CPDBAS_Mouse>
active

>  <ActivityOutcome_CPDBAS_SingleCellCall>
active

>  <ChemicalPage_URL>
http://potency.berkeley.edu/chempages/(N-6)-(METHYLNITROSO)ADENINE.html

$$$$



 22 24  0  0  1  0  0  0  0  0999 V2000
    1.0338    0.0000    0.0000 O   0  0  0  0  0  0  0  0  0  0  0  0
    4.4234   -5.5367    0.0000 N   0  0  0  0  0  0  0  0  0  0  0  0
    3.2405   -5.1590    0.0000 C   0  0  0  0  0  0  0  0  0  0  0  0
    3.2405   -3.8667    0.0000 C   0  0  0  0  0  0  0  0  0  0  0  0
    4.4234   -3.4791    0.0000 N   0  0  0  0  0  0  0  0  0  0  0  0
    5.1788   -4.5128    0.0000 C   0  0  0  0  0  0  0  0  0  0  0  0
    2.0974   -3.2107    0.0000 C   0  0  0  0  0  0  0  0  0  0  0  0
    2.0974   -5.8051    0.0000 N   0  0  0  0  0  0  0  0  0  0  0  0
    1.0238   -3.8667    0.0000 N   0  0  0  0  0  0  0  0  0  0  0  0
    1.0238   -5.1590    0.0000 C   0  0  0  0  0  0  0  0  0  0  0  0
    2.0974   -1.9483    0.0000 N   0  0  0  0  0  0  0  0  0  0  0  0
    4.4234   -7.5943    0.0000 C   0  0  2  0  0  0  0  0  0  0  0  0
    2.2564   -7.5943    0.0000 C   0  0  1  0  0  0  0  0  0  0  0  0
    3.3598   -6.8289    0.0000 O   0  0  0  0  0  0  0  0  0  0  0  0
    2.6938   -8.8766    0.0000 C   0  0  2  0  0  0  0  0  0  0  0  0
    4.0158   -8.8766    0.0000 C   0  0  1  0  0  0  0  0  0  0  0  0
    1.8886   -9.9402    0.0000 O   0  0  0  0  0  0  0  0  0  0  0  0
    4.7812   -9.9402    0.0000 O   0  0  0  0  0  0  0  0  0  0  0  0
    0.9940   -7.1967    0.0000 C   0  0  0  0  0  0  0  0  0  0  0  0
    0.0000   -8.0913    0.0000 O   0  0  0  0  0  0  0  0  0  0  0  0
    3.2703   -1.4016    0.0000 C   0  0  0  0  0  0  0  0  0  0  0  0
    1.0537   -1.3618    0.0000 N   0  0  0  0  0  0  0  0  0  0  0  0
  1 22  2  0  0  0  0
  2  3  1  0  0  0  0
  2  6  1  0  0  0  0
 12  2  1  1  0  0  0
  3  4  2  0  0  0  0
  3  8  1  0  0  0  0
  4  7  1  0  0  0  0
  4  5  1  0  0  0  0
  5  6  2  0  0  0  0
  7 11  1  0  0  0  0
  7  9  2  0  0  0  0
  8 10  2  0  0  0  0
  9 10  1  0  0  0  0
 11 21  1  0  0  0  0
 11 22  1  0  0  0  0
 12 14  1  0  0  0  0
 12 16  1  0  0  0  0
 13 14  1  0  0  0  0
 13 15  1  0  0  0  0
 13 19  1  1  0  0  0
 15 16  1  0  0  0  0
 15 17  1  6  0  0  0
 16 18  1  6  0  0  0
 19 20  1  0  0  0  0
M  END
>  <DSSTox_RID>
20883

>  <DSSTox_CID>
883

>  <DSSTox_Generic_SID>
20883

>  <DSSTox_FileID>
926_CPDBAS_v5d

>  <STRUCTURE_Formula>
C11H14N6O5

>  <STRUCTURE_MolecularWeight>
310.2688

>  <STRUCTURE_ChemicalType>
defined organic

>  <STRUCTURE_TestedForm_DefinedOrganic>
parent

>  <STRUCTURE_Shown>
tested chemical

>  <TestSubstance_ChemicalName>
(N-6)-(Methylnitroso)adenosine

>  <TestSubstance_CASRN>
21928-82-5

>  <TestSubstance_Description>
single chemical compound

>  <ChemicalNote>
stereochem

>  <STRUCTURE_ChemicalName_IUPAC>
N-methyl-N-nitroso-9-beta-D-ribofuranosyl-9H-purin-6-amine

>  <STRUCTURE_SMILES>
O=NN(C)C1=NC=NC2=C1N=CN2[C@@H]3O[C@H](CO)[C@@H](O)[C@H]3O

>  <STRUCTURE_Parent_SMILES>
O=NN(C)C1=NC=NC2=C1N=CN2[C@@H]3O[C@H](CO)[C@@H](O)[C@H]3O

>  <STRUCTURE_InChI>
InChI=1/C11H14N6O5/c1-16(15-21)9-6-10(13-3-12-9)17(4-14-6)11-8(20)7(19)5(2-18)22-11/h3-5,7-8,11,18-20H,2H2,1H3/t5-,7-,8-,11-/m1/s1

>  <STRUCTURE_InChIKey>
AGGQXACVVHIHNR-IOSLPCCCBX

>  <StudyType>
Carcinogenicity

>  <Endpoint>
TD50; Tumor Target Sites

>  <Species>
mouse

>  <TD50_Mouse_mg>
18.3

>  <TD50_Mouse_mmol>
0.059

>  <ActivityScore_CPDBAS_Mouse>
42

>  <TD50_Mouse_Note>
TD50 is harmonic mean of more than one positive test

>  <TargetSites_Mouse_Male>
lung

>  <TargetSites_Mouse_Female>
lung; mammary gland; uterus

>  <ActivityOutcome_CPDBAS_Mouse>
active

>  <ActivityOutcome_CPDBAS_SingleCellCall>
active

>  <ActivityOutcome_CPDBAS_MultiCellCall>
active

>  <ActivityOutcome_CPDBAS_MultiCellCall_Details>
multisite active; multisex active

>  <ChemicalPage_URL>
http://potency.berkeley.edu/chempages/(N-6)-(METHYLNITROSO)ADENOSINE.html

$$$$



  6  5  0  0  0  0  0  0  0  0999 V2000
    0.0000   -1.1544    0.0000 N   0  0  0  0  0  0  0  0  0  0  0  0
    1.3312   -1.1544    0.0000 C   0  0  0  0  0  0  0  0  0  0  0  0
    2.6578   -1.1544    0.0000 N   0  0  0  0  0  0  0  0  0  0  0  0
    3.3234   -2.3040    0.0000 C   0  0  0  0  0  0  0  0  0  0  0  0
    3.3234    0.0000    0.0000 N   0  0  0  0  0  0  0  0  0  0  0  0
    4.6546    0.0000    0.0000 O   0  0  0  0  0  0  0  0  0  0  0  0
  1  2  3  0  0  0  0
  2  3  1  0  0  0  0
  3  4  1  0  0  0  0
  3  5  1  0  0  0  0
  5  6  2  0  0  0  0
M  END
>  <DSSTox_RID>
20884

>  <DSSTox_CID>
884

>  <DSSTox_Generic_SID>
20884

>  <DSSTox_FileID>
927_CPDBAS_v5d

>  <STRUCTURE_Formula>
C2H3N3O

>  <STRUCTURE_MolecularWeight>
85.0652

>  <STRUCTURE_ChemicalType>
defined organic

>  <STRUCTURE_TestedForm_DefinedOrganic>
parent

>  <STRUCTURE_Shown>
tested chemical

>  <TestSubstance_ChemicalName>
Methylnitrosocyanamide

>  <TestSubstance_CASRN>
33868-17-6

>  <TestSubstance_Description>
single chemical compound

>  <STRUCTURE_ChemicalName_IUPAC>
methyl(nitroso)cyanamide

>  <STRUCTURE_SMILES>
N#CN(C)N=O

>  <STRUCTURE_Parent_SMILES>
N#CN(C)N=O

>  <STRUCTURE_InChI>
InChI=1/C2H3N3O/c1-5(2-3)4-6/h1H3

>  <STRUCTURE_InChIKey>
DHOYZNRIPLSCPT-UHFFFAOYAI

>  <StudyType>
Carcinogenicity

>  <Endpoint>
TD50; Tumor Target Sites

>  <Species>
rat

>  <ActivityOutcome_CPDBAS_Mutagenicity>
active

>  <TD50_Rat_mg>
0.48

>  <TD50_Rat_mmol>
0.00564

>  <ActivityScore_CPDBAS_Rat>
49

>  <TargetSites_Rat_Female>
stomach

>  <ActivityOutcome_CPDBAS_Rat>
active

>  <ActivityOutcome_CPDBAS_SingleCellCall>
active

>  <ChemicalPage_URL>
http://potency.berkeley.edu/chempages/METHYLNITROSOCYANAMIDE.html

$$$$



  7  6  0  0  0  0  0  0  0  0999 V2000
    0.0000   -3.4555    0.0000 O   0  0  0  0  0  0  0  0  0  0  0  0
    1.3315   -3.4555    0.0000 C   0  0  0  0  0  0  0  0  0  0  0  0
    1.9950   -2.3037    0.0000 N   0  0  0  0  0  0  0  0  0  0  0  0
    1.3315   -1.1518    0.0000 C   0  0  0  0  0  0  0  0  0  0  0  0
    1.9950    0.0000    0.0000 O   0  0  0  0  0  0  0  0  0  0  0  0
    1.9950   -4.6073    0.0000 C   0  0  0  0  0  0  0  0  0  0  0  0
    3.3265   -4.6073    0.0000 C   0  0  0  0  0  0  0  0  0  0  0  0
  1  2  2  0  0  0  0
  2  3  1  0  0  0  0
  2  6  1  0  0  0  0
  3  4  1  0  0  0  0
  4  5  1  0  0  0  0
  6  7  2  0  0  0  0
M  END
>  <DSSTox_RID>
20885

>  <DSSTox_CID>
885

>  <DSSTox_Generic_SID>
20885

>  <DSSTox_FileID>
928_CPDBAS_v5d

>  <STRUCTURE_Formula>
C4H7NO2

>  <STRUCTURE_MolecularWeight>
101.1039

>  <STRUCTURE_ChemicalType>
defined organic

>  <STRUCTURE_TestedForm_DefinedOrganic>
parent

>  <STRUCTURE_Shown>
tested chemical

>  <TestSubstance_ChemicalName>
N-Methylolacrylamide

>  <TestSubstance_CASRN>
924-42-5

>  <TestSubstance_Description>
single chemical compound

>  <STRUCTURE_ChemicalName_IUPAC>
N-(hydroxymethyl)acrylamide

>  <STRUCTURE_SMILES>
O=C(NCO)C=C

>  <STRUCTURE_Parent_SMILES>
O=C(NCO)C=C

>  <STRUCTURE_InChI>
InChI=1/C4H7NO2/c1-2-4(7)5-3-6/h2,6H,1,3H2,(H,5,7)/f/h5H

>  <STRUCTURE_InChIKey>
CNCOEDDPFOAUMB-JSWHHWTPCO

>  <StudyType>
Carcinogenicity

>  <Endpoint>
TD50; Tumor Target Sites

>  <Species>
rat; mouse

>  <ActivityOutcome_CPDBAS_Mutagenicity>
inactive

>  <ActivityScore_CPDBAS_Rat>
0

>  <TD50_Rat_Note>
no positive results

>  <TargetSites_Rat_Male>
no positive results

>  <TargetSites_Rat_Female>
no positive results

>  <ActivityOutcome_CPDBAS_Rat>
inactive

>  <TD50_Mouse_mg>
26.6

>  <TD50_Mouse_mmol>
0.263

>  <ActivityScore_CPDBAS_Mouse>
35

>  <TD50_Mouse_Note>
TD50 is harmonic mean of more than one positive test

>  <TargetSites_Mouse_Male>
harderian gland; liver; lung

>  <TargetSites_Mouse_Female>
harderian gland; liver; lung; ovary

>  <ActivityOutcome_CPDBAS_Mouse>
active

>  <ActivityOutcome_CPDBAS_SingleCellCall>
active

>  <ActivityOutcome_CPDBAS_MultiCellCall>
active

>  <ActivityOutcome_CPDBAS_MultiCellCall_Details>
multisite active; multisex active

>  <NTP_TechnicalReport>
TR 352

>  <ChemicalPage_URL>
http://potency.berkeley.edu/chempages/N-METHYLOLACRYLAMIDE.html

$$$$



 11 12  0  0  0  0  0  0  0  0999 V2000
    5.7589   -2.6606    0.0000 C   0  0  0  0  0  0  0  0  0  0  0  0
    4.6071   -1.9983    0.0000 C   0  0  0  0  0  0  0  0  0  0  0  0
    3.4554   -2.6606    0.0000 C   0  0  0  0  0  0  0  0  0  0  0  0
    2.3036   -1.9983    0.0000 C   0  0  0  0  0  0  0  0  0  0  0  0
    1.1518   -2.6606    0.0000 C   0  0  0  0  0  0  0  0  0  0  0  0
    0.0000   -1.9983    0.0000 C   0  0  0  0  0  0  0  0  0  0  0  0
    0.0000   -0.6680    0.0000 C   0  0  0  0  0  0  0  0  0  0  0  0
    1.1518    0.0000    0.0000 N   0  0  0  0  0  0  0  0  0  0  0  0
    2.3036   -0.6680    0.0000 C   0  0  0  0  0  0  0  0  0  0  0  0
    3.4554    0.0000    0.0000 C   0  0  0  0  0  0  0  0  0  0  0  0
    4.6071   -0.6680    0.0000 C   0  0  0  0  0  0  0  0  0  0  0  0
  1  2  1  0  0  0  0
  2  3  2  0  0  0  0
  2 11  1  0  0  0  0
  3  4  1  0  0  0  0
  4  5  2  0  0  0  0
  4  9  1  0  0  0  0
  5  6  1  0  0  0  0
  6  7  2  0  0  0  0
  7  8  1  0  0  0  0
  8  9  2  0  0  0  0
  9 10  1  0  0  0  0
 10 11  2  0  0  0  0
M  END
>  <DSSTox_RID>
20887

>  <DSSTox_CID>
887

>  <DSSTox_Generic_SID>
20887

>  <DSSTox_FileID>
930_CPDBAS_v5d

>  <STRUCTURE_Formula>
C10H9N

>  <STRUCTURE_MolecularWeight>
143.1852

>  <STRUCTURE_ChemicalType>
defined organic

>  <STRUCTURE_TestedForm_DefinedOrganic>
parent

>  <STRUCTURE_Shown>
tested chemical

>  <TestSubstance_ChemicalName>
6-Methylquinoline

>  <TestSubstance_CASRN>
91-62-3

>  <TestSubstance_Description>
single chemical compound

>  <STRUCTURE_ChemicalName_IUPAC>
6-methylquinoline

>  <STRUCTURE_SMILES>
CC1=CC2=CC=CN=C2C=C1

>  <STRUCTURE_Parent_SMILES>
CC1=CC2=CC=CN=C2C=C1

>  <STRUCTURE_InChI>
InChI=1/C10H9N/c1-8-4-5-10-9(7-8)3-2-6-11-10/h2-7H,1H3

>  <STRUCTURE_InChIKey>
LUYISICIYVKBTA-UHFFFAOYAD

>  <StudyType>
Carcinogenicity

>  <Endpoint>
TD50; Tumor Target Sites

>  <Species>
rat

>  <ActivityOutcome_CPDBAS_Mutagenicity>
active

>  <ActivityScore_CPDBAS_Rat>
0

>  <TD50_Rat_Note>
no positive results

>  <TargetSites_Rat_Male>
no positive results

>  <TargetSites_Rat_Female>
no positive results

>  <ActivityOutcome_CPDBAS_Rat>
inactive

>  <ActivityOutcome_CPDBAS_SingleCellCall>
inactive

>  <ActivityOutcome_CPDBAS_MultiCellCall>
inactive

>  <ActivityOutcome_CPDBAS_MultiCellCall_Details>
multisex inactive

>  <ChemicalPage_URL>
http://potency.berkeley.edu/chempages/6-METHYLQUINOLINE.html

$$$$



 11 12  0  0  0  0  0  0  0  0999 V2000
    3.4555    0.0000    0.0000 C   0  0  0  0  0  0  0  0  0  0  0  0
    3.4555   -1.3315    0.0000 C   0  0  0  0  0  0  0  0  0  0  0  0
    4.6073   -1.9950    0.0000 C   0  0  0  0  0  0  0  0  0  0  0  0
    4.6073   -3.3265    0.0000 C   0  0  0  0  0  0  0  0  0  0  0  0
    3.4555   -3.9899    0.0000 C   0  0  0  0  0  0  0  0  0  0  0  0
    2.3037   -3.3265    0.0000 C   0  0  0  0  0  0  0  0  0  0  0  0
    1.1518   -3.9899    0.0000 C   0  0  0  0  0  0  0  0  0  0  0  0
    0.0000   -3.3265    0.0000 C   0  0  0  0  0  0  0  0  0  0  0  0
    0.0000   -1.9950    0.0000 C   0  0  0  0  0  0  0  0  0  0  0  0
    1.1518   -1.3315    0.0000 N   0  0  0  0  0  0  0  0  0  0  0  0
    2.3037   -1.9950    0.0000 C   0  0  0  0  0  0  0  0  0  0  0  0
  1  2  1  0  0  0  0
  2  3  2  0  0  0  0
  2 11  1  0  0  0  0
  3  4  1  0  0  0  0
  4  5  2  0  0  0  0
  5  6  1  0  0  0  0
  6  7  2  0  0  0  0
  6 11  1  0  0  0  0
  7  8  1  0  0  0  0
  8  9  2  0  0  0  0
  9 10  1  0  0  0  0
 10 11  2  0  0  0  0
M  END
>  <DSSTox_RID>
20888

>  <DSSTox_CID>
888

>  <DSSTox_Generic_SID>
20888

>  <DSSTox_FileID>
931_CPDBAS_v5d

>  <STRUCTURE_Formula>
C10H9N

>  <STRUCTURE_MolecularWeight>
143.1852

>  <STRUCTURE_ChemicalType>
defined organic

>  <STRUCTURE_TestedForm_DefinedOrganic>
parent

>  <STRUCTURE_Shown>
tested chemical

>  <TestSubstance_ChemicalName>
8-Methylquinoline

>  <TestSubstance_CASRN>
611-32-5

>  <TestSubstance_Description>
single chemical compound

>  <STRUCTURE_ChemicalName_IUPAC>
8-methylquinoline

>  <STRUCTURE_SMILES>
CC1=CC=CC2=CC=CN=C12

>  <STRUCTURE_Parent_SMILES>
CC1=CC=CC2=CC=CN=C12

>  <STRUCTURE_InChI>
InChI=1/C10H9N/c1-8-4-2-5-9-6-3-7-11-10(8)9/h2-7H,1H3

>  <STRUCTURE_InChIKey>
JRLTTZUODKEYDH-UHFFFAOYAU

>  <StudyType>
Carcinogenicity

>  <Endpoint>
TD50; Tumor Target Sites

>  <Species>
rat

>  <ActivityOutcome_CPDBAS_Mutagenicity>
active

>  <ActivityScore_CPDBAS_Rat>
0

>  <TD50_Rat_Note>
no positive results

>  <TargetSites_Rat_Male>
no positive results

>  <TargetSites_Rat_Female>
no positive results

>  <ActivityOutcome_CPDBAS_Rat>
inactive

>  <ActivityOutcome_CPDBAS_SingleCellCall>
inactive

>  <ActivityOutcome_CPDBAS_MultiCellCall>
inactive

>  <ActivityOutcome_CPDBAS_MultiCellCall_Details>
multisex inactive

>  <ChemicalPage_URL>
http://potency.berkeley.edu/chempages/8-METHYLQUINOLINE.html

$$$$



  9  9  0  0  0  0  0  0  0  0999 V2000
    0.0000    0.0000    0.0000 C   0  0  0  0  0  0  0  0  0  0  0  0
    0.6638   -1.1542    0.0000 C   0  0  0  0  0  0  0  0  0  0  0  0
    1.9915   -1.1542    0.0000 C   0  0  0  0  0  0  0  0  0  0  0  0
    2.6554    0.0000    0.0000 C   0  0  0  0  0  0  0  0  0  0  0  0
    3.9890    0.0000    0.0000 C   0  0  0  0  0  0  0  0  0  0  0  0
    4.6529   -1.1542    0.0000 C   0  0  0  0  0  0  0  0  0  0  0  0
    3.9890   -2.3025    0.0000 C   0  0  0  0  0  0  0  0  0  0  0  0
    2.6554   -2.3025    0.0000 C   0  0  0  0  0  0  0  0  0  0  0  0
    5.9806   -1.1542    0.0000 C   0  0  0  0  0  0  0  0  0  0  0  0
  1  2  2  0  0  0  0
  2  3  1  0  0  0  0
  3  4  2  0  0  0  0
  3  8  1  0  0  0  0
  4  5  1  0  0  0  0
  5  6  2  0  0  0  0
  6  7  1  0  0  0  0
  6  9  1  0  0  0  0
  7  8  2  0  0  0  0
M  END
>  <DSSTox_RID>
20889

>  <DSSTox_CID>
889

>  <DSSTox_Generic_SID>
20889

>  <DSSTox_FileID>
932_CPDBAS_v5d

>  <STRUCTURE_Formula>
C9H10

>  <STRUCTURE_MolecularWeight>
118.1757

>  <STRUCTURE_ChemicalType>
defined organic

>  <STRUCTURE_TestedForm_DefinedOrganic>
parent

>  <STRUCTURE_Shown>
tested chemical

>  <TestSubstance_ChemicalName>
p-Methylstyrene

>  <TestSubstance_CASRN>
622-97-9

>  <TestSubstance_Description>
single chemical compound

>  <STRUCTURE_ChemicalName_IUPAC>
1-ethenyl-4-methylbenzene

>  <STRUCTURE_SMILES>
C=CC1=CC=C(C=C1)C

>  <STRUCTURE_Parent_SMILES>
C=CC1=CC=C(C=C1)C

>  <STRUCTURE_InChI>
InChI=1/C9H10/c1-3-9-6-4-8(2)5-7-9/h3-7H,1H2,2H3

>  <STRUCTURE_InChIKey>
JLBJTVDPSNHSKJ-UHFFFAOYAK

>  <StudyType>
Carcinogenicity

>  <Endpoint>
TD50; Tumor Target Sites

>  <Species>
mouse

>  <ActivityScore_CPDBAS_Mouse>
0

>  <TD50_Mouse_Note>
no positive results

>  <TargetSites_Mouse_Male>
no positive results

>  <TargetSites_Mouse_Female>
no positive results

>  <ActivityOutcome_CPDBAS_Mouse>
inactive

>  <ActivityOutcome_CPDBAS_SingleCellCall>
inactive

>  <ActivityOutcome_CPDBAS_MultiCellCall>
inactive

>  <ActivityOutcome_CPDBAS_MultiCellCall_Details>
multisex inactive

>  <ChemicalPage_URL>
http://potency.berkeley.edu/chempages/p-METHYLSTYRENE.html

$$$$



  9  9  0  0  0  0  0  0  0  0999 V2000
    0.0000   -2.3037    0.0000 C   0  0  0  0  0  0  0  0  0  0  0  0
    1.3315   -2.3037    0.0000 C   0  0  0  0  0  0  0  0  0  0  0  0
    1.9950   -1.1518    0.0000 C   0  0  0  0  0  0  0  0  0  0  0  0
    3.3265   -1.1518    0.0000 C   0  0  0  0  0  0  0  0  0  0  0  0
    3.9899    0.0000    0.0000 O   0  0  0  0  0  0  0  0  0  0  0  0
    3.9899   -2.3037    0.0000 N   0  0  0  0  0  0  0  0  0  0  0  0
    3.3265   -3.4555    0.0000 C   0  0  0  0  0  0  0  0  0  0  0  0
    3.9899   -4.6073    0.0000 S   0  0  0  0  0  0  0  0  0  0  0  0
    1.9950   -3.4555    0.0000 N   0  0  0  0  0  0  0  0  0  0  0  0
  1  2  1  0  0  0  0
  2  3  2  0  0  0  0
  2  9  1  0  0  0  0
  3  4  1  0  0  0  0
  4  5  2  0  0  0  0
  4  6  1  0  0  0  0
  6  7  1  0  0  0  0
  7  8  2  0  0  0  0
  7  9  1  0  0  0  0
M  END
>  <DSSTox_RID>
20890

>  <DSSTox_CID>
890

>  <DSSTox_Generic_SID>
20890

>  <DSSTox_FileID>
933_CPDBAS_v5d

>  <STRUCTURE_Formula>
C5H6N2OS

>  <STRUCTURE_MolecularWeight>
142.1789

>  <STRUCTURE_ChemicalType>
defined organic

>  <STRUCTURE_TestedForm_DefinedOrganic>
parent

>  <STRUCTURE_Shown>
tested chemical

>  <TestSubstance_ChemicalName>
Methylthiouracil

>  <TestSubstance_CASRN>
56-04-2

>  <TestSubstance_Description>
single chemical compound

>  <STRUCTURE_ChemicalName_IUPAC>
6-methyl-2-thioxo-2,3-dihydropyrimidin-4(1H)-one

>  <STRUCTURE_SMILES>
CC1=CC(=O)NC(=S)N1

>  <STRUCTURE_Parent_SMILES>
CC1=CC(=O)NC(=S)N1

>  <STRUCTURE_InChI>
InChI=1/C5H6N2OS/c1-3-2-4(8)7-5(9)6-3/h2H,1H3,(H2,6,7,8,9)/f/h6-7H

>  <STRUCTURE_InChIKey>
HWGBHCRJGXAGEU-ZDKSUBDRCM

>  <StudyType>
Carcinogenicity

>  <Endpoint>
TD50; Tumor Target Sites

>  <Species>
mouse; hamster

>  <ActivityOutcome_CPDBAS_Mutagenicity>
inactive

>  <ActivityScore_CPDBAS_Mouse>
0

>  <TargetSites_Mouse_BothSexes>
no positive results

>  <ActivityOutcome_CPDBAS_Mouse>
inactive

>  <TD50_Hamster_mg>
53.4

>  <TD50_Hamster_mmol>
0.376

>  <ActivityScore_CPDBAS_Hamster>
36

>  <TargetSites_Hamster_Female>
thyroid gland

>  <ActivityOutcome_CPDBAS_Hamster>
active

>  <ActivityOutcome_CPDBAS_SingleCellCall>
active

>  <ChemicalPage_URL>
http://potency.berkeley.edu/chempages/METHYLTHIOURACIL.html

$$$$



 23 26  0  0  0  0  0  0  0  0999 V2000
    9.9631   -5.5395    0.0000 C   0  0  0  0  0  0  0  0  0  0  0  0
    8.6778   -5.1310    0.0000 N   0  0  0  0  0  0  0  0  0  0  0  0
    7.7313   -6.0775    0.0000 C   0  0  0  0  0  0  0  0  0  0  0  0
    6.4461   -5.6590    0.0000 C   0  0  0  0  0  0  0  0  0  0  0  0
    6.1671   -4.3837    0.0000 N   0  0  0  0  0  0  0  0  0  0  0  0
    7.1136   -3.4472    0.0000 C   0  0  0  0  0  0  0  0  0  0  0  0
    8.3989   -3.8557    0.0000 C   0  0  0  0  0  0  0  0  0  0  0  0
    4.9018   -3.9952    0.0000 C   0  0  0  0  0  0  0  0  0  0  0  0
    3.9553   -4.9317    0.0000 N   0  0  0  0  0  0  0  0  0  0  0  0
    2.6502   -4.8520    0.0000 C   0  0  0  0  0  0  0  0  0  0  0  0
    2.0723   -6.0476    0.0000 C   0  0  0  0  0  0  0  0  0  0  0  0
    0.7472   -6.1472    0.0000 C   0  0  0  0  0  0  0  0  0  0  0  0
    0.0000   -5.0513    0.0000 C   0  0  0  0  0  0  0  0  0  0  0  0
    0.5779   -3.8557    0.0000 C   0  0  0  0  0  0  0  0  0  0  0  0
    1.9029   -3.7561    0.0000 C   0  0  0  0  0  0  0  0  0  0  0  0
    2.2915   -2.4808    0.0000 S   0  0  0  0  0  0  0  0  0  0  0  0
    3.5369   -1.9926    0.0000 C   0  0  0  0  0  0  0  0  0  0  0  0
    3.5369   -0.6675    0.0000 C   0  0  0  0  0  0  0  0  0  0  0  0
    4.6826    0.0000    0.0000 C   0  0  0  0  0  0  0  0  0  0  0  0
    5.8384   -0.6675    0.0000 C   0  0  0  0  0  0  0  0  0  0  0  0
    6.9841    0.0000    0.0000 C   0  0  0  0  0  0  0  0  0  0  0  0
    5.8384   -1.9926    0.0000 C   0  0  0  0  0  0  0  0  0  0  0  0
    4.6826   -2.6601    0.0000 C   0  0  0  0  0  0  0  0  0  0  0  0
  1  2  1  0  0  0  0
  2  3  1  0  0  0  0
  2  7  1  0  0  0  0
  3  4  1  0  0  0  0
  4  5  1  0  0  0  0
  5  6  1  0  0  0  0
  5  8  1  0  0  0  0
  6  7  1  0  0  0  0
  8  9  2  0  0  0  0
  8 23  1  0  0  0  0
  9 10  1  0  0  0  0
 10 11  2  0  0  0  0
 10 15  1  0  0  0  0
 11 12  1  0  0  0  0
 12 13  2  0  0  0  0
 13 14  1  0  0  0  0
 14 15  2  0  0  0  0
 15 16  1  0  0  0  0
 16 17  1  0  0  0  0
 17 18  1  0  0  0  0
 17 23  2  0  0  0  0
 18 19  2  0  0  0  0
 19 20  1  0  0  0  0
 20 21  1  0  0  0  0
 20 22  2  0  0  0  0
 22 23  1  0  0  0  0
M  END
>  <DSSTox_RID>
20891

>  <DSSTox_CID>
891

>  <DSSTox_Generic_SID>
20891

>  <DSSTox_FileID>
934_CPDBAS_v5d

>  <STRUCTURE_Formula>
C19H21N3S

>  <STRUCTURE_MolecularWeight>
323.455

>  <STRUCTURE_ChemicalType>
defined organic

>  <STRUCTURE_TestedForm_DefinedOrganic>
parent

>  <STRUCTURE_Shown>
tested chemical

>  <TestSubstance_ChemicalName>
Metiapine

>  <TestSubstance_CASRN>
5800-19-1

>  <TestSubstance_Description>
single chemical compound

>  <STRUCTURE_ChemicalName_IUPAC>
2-methyl-11-(4-methylpiperazin-1-yl)dibenzo[b,f][1,4]thiazepine

>  <STRUCTURE_SMILES>
CN1CCN(CC1)/C2=N/C3=CC=CC=C3SC4C=CC(C)=CC2=4

>  <STRUCTURE_Parent_SMILES>
CN1CCN(CC1)/C2=N/C3=CC=CC=C3SC4C=CC(C)=CC2=4

>  <STRUCTURE_InChI>
InChI=1/C19H21N3S/c1-14-7-8-17-15(13-14)19(22-11-9-21(2)10-12-22)20-16-5-3-4-6-18(16)23-17/h3-8,13H,9-12H2,1-2H3

>  <STRUCTURE_InChIKey>
IOEPXYJOHIZYGQ-UHFFFAOYAQ

>  <StudyType>
Carcinogenicity

>  <Endpoint>
TD50; Tumor Target Sites

>  <Species>
rat

>  <ActivityScore_CPDBAS_Rat>
0

>  <TD50_Rat_Note>
no positive results

>  <TargetSites_Rat_Male>
no positive results

>  <TargetSites_Rat_Female>
no positive results

>  <ActivityOutcome_CPDBAS_Rat>
inactive

>  <ActivityOutcome_CPDBAS_SingleCellCall>
inactive

>  <ActivityOutcome_CPDBAS_MultiCellCall>
inactive

>  <ActivityOutcome_CPDBAS_MultiCellCall_Details>
multisex inactive

>  <ChemicalPage_URL>
http://potency.berkeley.edu/chempages/METIAPINE.html

$$$$



 12 12  0  0  0  0  0  0  0  0999 V2000
    2.0462   -2.3385    0.0000 N   0  0  0  0  0  0  0  0  0  0  0  0
    1.2648   -3.4178    0.0000 C   0  0  0  0  0  0  0  0  0  0  0  0
    0.0000   -3.0075    0.0000 C   0  0  0  0  0  0  0  0  0  0  0  0
    0.0000   -1.6752    0.0000 N   0  0  0  0  0  0  0  0  0  0  0  0
    1.2648   -1.2648    0.0000 C   0  0  0  0  0  0  0  0  0  0  0  0
    1.6752    0.0000    0.0000 C   0  0  0  0  0  0  0  0  0  0  0  0
    1.6752   -4.6826    0.0000 N   0  3  0  0  0  0  0  0  0  0  0  0
    2.9625   -5.0256    0.0000 O   0  0  0  0  0  0  0  0  0  0  0  0
    0.7364   -5.6214    0.0000 O   0  5  0  0  0  0  0  0  0  0  0  0
    3.3785   -2.3385    0.0000 C   0  0  0  0  0  0  0  0  0  0  0  0
    4.0418   -3.4909    0.0000 C   0  0  0  0  0  0  0  0  0  0  0  0
    5.3685   -3.4909    0.0000 O   0  0  0  0  0  0  0  0  0  0  0  0
  1  2  1  0  0  0  0
  1  5  1  0  0  0  0
  1 10  1  0  0  0  0
  2  3  2  0  0  0  0
  2  7  1  0  0  0  0
  3  4  1  0  0  0  0
  4  5  2  0  0  0  0
  5  6  1  0  0  0  0
  7  8  2  0  0  0  0
  7  9  1  0  0  0  0
 10 11  1  0  0  0  0
 11 12  1  0  0  0  0
M  END
>  <DSSTox_RID>
20892

>  <DSSTox_CID>
892

>  <DSSTox_Generic_SID>
20892

>  <DSSTox_FileID>
936_CPDBAS_v5d

>  <STRUCTURE_Formula>
C6H9N3O3

>  <STRUCTURE_MolecularWeight>
171.154

>  <STRUCTURE_ChemicalType>
defined organic

>  <STRUCTURE_TestedForm_DefinedOrganic>
parent

>  <STRUCTURE_Shown>
tested chemical

>  <TestSubstance_ChemicalName>
Metronidazole

>  <TestSubstance_CASRN>
443-48-1

>  <TestSubstance_Description>
single chemical compound

>  <STRUCTURE_ChemicalName_IUPAC>
2-(2-methyl-5-nitro-1H-imidazol-1-yl)ethanol

>  <STRUCTURE_SMILES>
N1(C(=CN=C1C)[N+](=O)[O-])CCO

>  <STRUCTURE_Parent_SMILES>
N1(C(=CN=C1C)[N+](=O)[O-])CCO

>  <STRUCTURE_InChI>
InChI=1/C6H9N3O3/c1-5-7-4-6(9(11)12)8(5)2-3-10/h4,10H,2-3H2,1H3

>  <STRUCTURE_InChIKey>
VAOCPAMSLUNLGC-UHFFFAOYAG

>  <StudyType>
Carcinogenicity

>  <Endpoint>
TD50; Tumor Target Sites

>  <Species>
rat; mouse

>  <ActivityOutcome_CPDBAS_Mutagenicity>
active

>  <TD50_Rat_mg>
542

>  <TD50_Rat_mmol>
3.17

>  <ActivityScore_CPDBAS_Rat>
21

>  <TD50_Rat_Note>
TD50 is harmonic mean of more than one positive test

>  <TargetSites_Rat_Male>
pituitary gland; testes

>  <TargetSites_Rat_Female>
liver; mammary gland

>  <ActivityOutcome_CPDBAS_Rat>
active

>  <TD50_Mouse_mg>
506

>  <TD50_Mouse_mmol>
2.96

>  <ActivityScore_CPDBAS_Mouse>
23

>  <TD50_Mouse_Note>
TD50 is harmonic mean of more than one positive test

>  <TargetSites_Mouse_Male>
lung

>  <TargetSites_Mouse_Female>
hematopoietic system; lung

>  <ActivityOutcome_CPDBAS_Mouse>
active

>  <ActivityOutcome_CPDBAS_SingleCellCall>
active

>  <ActivityOutcome_CPDBAS_MultiCellCall>
active

>  <ActivityOutcome_CPDBAS_MultiCellCall_Details>
multisite active; multisex active; multispecies active

>  <ChemicalPage_URL>
http://potency.berkeley.edu/chempages/METRONIDAZOLE.html

$$$$



 16 16  0  0  0  0  0  0  0  0999 V2000
    1.1532   -3.9920    0.0000 C   0  0  0  0  0  0  0  0  0  0  0  0
    2.3065   -3.3307    0.0000 C   0  0  0  0  0  0  0  0  0  0  0  0
    2.3065   -2.0000    0.0000 C   0  0  0  0  0  0  0  0  0  0  0  0
    3.4597   -1.3307    0.0000 C   0  0  0  0  0  0  0  0  0  0  0  0
    4.6049   -2.0000    0.0000 C   0  0  0  0  0  0  0  0  0  0  0  0
    4.6049   -3.3307    0.0000 C   0  0  0  0  0  0  0  0  0  0  0  0
    3.4597   -3.9920    0.0000 C   0  0  0  0  0  0  0  0  0  0  0  0
    5.7581   -3.9920    0.0000 O   0  0  0  0  0  0  0  0  0  0  0  0
    6.9114   -3.3307    0.0000 C   0  0  0  0  0  0  0  0  0  0  0  0
    6.9114   -2.0000    0.0000 O   0  0  0  0  0  0  0  0  0  0  0  0
    8.0646   -3.9920    0.0000 N   0  0  0  0  0  0  0  0  0  0  0  0
    8.0646   -5.3226    0.0000 C   0  0  0  0  0  0  0  0  0  0  0  0
    3.4597    0.0000    0.0000 C   0  0  0  0  0  0  0  0  0  0  0  0
    1.1532   -1.3307    0.0000 N   0  0  0  0  0  0  0  0  0  0  0  0
    0.0000   -2.0000    0.0000 C   0  0  0  0  0  0  0  0  0  0  0  0
    1.1532    0.0000    0.0000 C   0  0  0  0  0  0  0  0  0  0  0  0
  1  2  1  0  0  0  0
  2  3  2  0  0  0  0
  2  7  1  0  0  0  0
  3  4  1  0  0  0  0
  3 14  1  0  0  0  0
  4  5  2  0  0  0  0
  4 13  1  0  0  0  0
  5  6  1  0  0  0  0
  6  7  2  0  0  0  0
  6  8  1  0  0  0  0
  8  9  1  0  0  0  0
  9 10  2  0  0  0  0
  9 11  1  0  0  0  0
 11 12  1  0  0  0  0
 14 15  1  0  0  0  0
 14 16  1  0  0  0  0
M  END
>  <DSSTox_RID>
20893

>  <DSSTox_CID>
893

>  <DSSTox_Generic_SID>
20893

>  <DSSTox_FileID>
937_CPDBAS_v5d

>  <STRUCTURE_Formula>
C12H18N2O2

>  <STRUCTURE_MolecularWeight>
222.2835

>  <STRUCTURE_ChemicalType>
defined organic

>  <STRUCTURE_TestedForm_DefinedOrganic>
parent

>  <STRUCTURE_Shown>
tested chemical

>  <TestSubstance_ChemicalName>
Mexacarbate

>  <TestSubstance_CASRN>
315-18-4

>  <TestSubstance_Description>
single chemical compound

>  <STRUCTURE_ChemicalName_IUPAC>
4-(dimethylamino)-3,5-dimethylphenyl methylcarbamate

>  <STRUCTURE_SMILES>
CC1=C(C(=CC(=C1)OC(=O)NC)C)N(C)C

>  <STRUCTURE_Parent_SMILES>
CC1=C(C(=CC(=C1)OC(=O)NC)C)N(C)C

>  <STRUCTURE_InChI>
InChI=1/C12H18N2O2/c1-8-6-10(16-12(15)13-3)7-9(2)11(8)14(4)5/h6-7H,1-5H3,(H,13,15)/f/h13H

>  <STRUCTURE_InChIKey>
YNEVBPNZHBAYOA-NDKGDYFDCA

>  <StudyType>
Carcinogenicity

>  <Endpoint>
TD50; Tumor Target Sites

>  <Species>
rat; mouse

>  <ActivityScore_CPDBAS_Rat>
0

>  <TD50_Rat_Note>
no positive results

>  <TargetSites_Rat_Male>
no positive results

>  <TargetSites_Rat_Female>
no positive results

>  <ActivityOutcome_CPDBAS_Rat>
inactive

>  <ActivityScore_CPDBAS_Mouse>
0

>  <TD50_Mouse_Note>
no positive results

>  <TargetSites_Mouse_Male>
no positive results

>  <TargetSites_Mouse_Female>
no positive results

>  <ActivityOutcome_CPDBAS_Mouse>
inactive

>  <ActivityOutcome_CPDBAS_SingleCellCall>
inactive

>  <ActivityOutcome_CPDBAS_MultiCellCall>
inactive

>  <ActivityOutcome_CPDBAS_MultiCellCall_Details>
multisex inactive; multispecies inactive

>  <NTP_TechnicalReport>
TR 147

>  <ChemicalPage_URL>
http://potency.berkeley.edu/chempages/MEXACARBATE.html

$$$$



 20 21  0  0  0  0  0  0  0  0999 V2000
    5.7577    0.0000    0.0000 O   0  0  0  0  0  0  0  0  0  0  0  0
    5.7577   -1.3358    0.0000 C   0  0  0  0  0  0  0  0  0  0  0  0
    6.9092   -1.9922    0.0000 C   0  0  0  0  0  0  0  0  0  0  0  0
    8.0608   -1.3358    0.0000 C   0  0  0  0  0  0  0  0  0  0  0  0
    9.2123   -1.9922    0.0000 C   0  0  0  0  0  0  0  0  0  0  0  0
    9.2123   -3.3280    0.0000 C   0  0  0  0  0  0  0  0  0  0  0  0
    8.0608   -3.9958    0.0000 C   0  0  0  0  0  0  0  0  0  0  0  0
    6.9092   -3.3280    0.0000 C   0  0  0  0  0  0  0  0  0  0  0  0
   10.3639   -3.9958    0.0000 N   0  0  0  0  0  0  0  0  0  0  0  0
   10.3639   -5.3201    0.0000 C   0  0  0  0  0  0  0  0  0  0  0  0
   11.5154   -3.3280    0.0000 C   0  0  0  0  0  0  0  0  0  0  0  0
    4.6062   -1.9922    0.0000 C   0  0  0  0  0  0  0  0  0  0  0  0
    4.6062   -3.3280    0.0000 C   0  0  0  0  0  0  0  0  0  0  0  0
    3.4546   -3.9958    0.0000 C   0  0  0  0  0  0  0  0  0  0  0  0
    2.3031   -3.3280    0.0000 C   0  0  0  0  0  0  0  0  0  0  0  0
    2.3031   -1.9922    0.0000 C   0  0  0  0  0  0  0  0  0  0  0  0
    3.4546   -1.3358    0.0000 C   0  0  0  0  0  0  0  0  0  0  0  0
    1.1515   -3.9958    0.0000 N   0  0  0  0  0  0  0  0  0  0  0  0
    1.1515   -5.3201    0.0000 C   0  0  0  0  0  0  0  0  0  0  0  0
    0.0000   -3.3280    0.0000 C   0  0  0  0  0  0  0  0  0  0  0  0
  1  2  2  0  0  0  0
  2  3  1  0  0  0  0
  2 12  1  0  0  0  0
  3  4  2  0  0  0  0
  3  8  1  0  0  0  0
  4  5  1  0  0  0  0
  5  6  2  0  0  0  0
  6  7  1  0  0  0  0
  6  9  1  0  0  0  0
  7  8  2  0  0  0  0
  9 10  1  0  0  0  0
  9 11  1  0  0  0  0
 12 13  2  0  0  0  0
 12 17  1  0  0  0  0
 13 14  1  0  0  0  0
 14 15  2  0  0  0  0
 15 16  1  0  0  0  0
 15 18  1  0  0  0  0
 16 17  2  0  0  0  0
 18 19  1  0  0  0  0
 18 20  1  0  0  0  0
M  END
>  <DSSTox_RID>
20894

>  <DSSTox_CID>
894

>  <DSSTox_Generic_SID>
20894

>  <DSSTox_FileID>
938_CPDBAS_v5d

>  <STRUCTURE_Formula>
C17H20N2O

>  <STRUCTURE_MolecularWeight>
268.3535

>  <STRUCTURE_ChemicalType>
defined organic

>  <STRUCTURE_TestedForm_DefinedOrganic>
parent

>  <STRUCTURE_Shown>
tested chemical

>  <TestSubstance_ChemicalName>
Michler's ketone

>  <TestSubstance_CASRN>
90-94-8

>  <TestSubstance_Description>
single chemical compound

>  <STRUCTURE_ChemicalName_IUPAC>
bis[4-(dimethylamino)phenyl]methanone

>  <STRUCTURE_SMILES>
O=C(C1=CC=C(C=C1)N(C)C)C2=CC=C(C=C2)N(C)C

>  <STRUCTURE_Parent_SMILES>
O=C(C1=CC=C(C=C1)N(C)C)C2=CC=C(C=C2)N(C)C

>  <STRUCTURE_InChI>
InChI=1/C17H20N2O/c1-18(2)15-9-5-13(6-10-15)17(20)14-7-11-16(12-8-14)19(3)4/h5-12H,1-4H3

>  <STRUCTURE_InChIKey>
VVBLNCFGVYUYGU-UHFFFAOYAE

>  <StudyType>
Carcinogenicity

>  <Endpoint>
TD50; Tumor Target Sites

>  <Species>
rat; mouse

>  <ActivityOutcome_CPDBAS_Mutagenicity>
active

>  <TD50_Rat_mg>
5.64

>  <TD50_Rat_mmol>
0.021

>  <ActivityScore_CPDBAS_Rat>
43

>  <TD50_Rat_Note>
TD50 is harmonic mean of more than one positive test

>  <TargetSites_Rat_Male>
liver

>  <TargetSites_Rat_Female>
liver

>  <ActivityOutcome_CPDBAS_Rat>
active

>  <TD50_Mouse_mg>
84.1

>  <TD50_Mouse_mmol>
0.313

>  <ActivityScore_CPDBAS_Mouse>
34

>  <TD50_Mouse_Note>
TD50 is harmonic mean of more than one positive test

>  <TargetSites_Mouse_Male>
vascular system

>  <TargetSites_Mouse_Female>
liver

>  <ActivityOutcome_CPDBAS_Mouse>
active

>  <ActivityOutcome_CPDBAS_SingleCellCall>
active

>  <ActivityOutcome_CPDBAS_MultiCellCall>
active

>  <ActivityOutcome_CPDBAS_MultiCellCall_Details>
multisite active; multisex active; multispecies active

>  <NTP_TechnicalReport>
TR 181

>  <ChemicalPage_URL>
http://potency.berkeley.edu/chempages/MICHLER'S%20KETONE.html

$$$$



 22 26  0  0  0  0  0  0  0  0999 V2000
    2.0888   -1.6738    0.0000 C   0  0  0  0  0  0  0  0  0  0  0  0
    3.6129   -3.1434    0.0000 C   0  0  0  0  0  0  0  0  0  0  0  0
    3.2727   -2.7488    0.0000 C   0  0  0  0  0  0  0  0  0  0  0  0
    4.8171   -4.2116    0.0000 C   0  0  0  0  0  0  0  0  0  0  0  0
    2.0888   -3.1434    0.0000 C   0  0  0  0  0  0  0  0  0  0  0  0
    3.2727   -4.2116    0.0000 C   0  0  0  0  0  0  0  0  0  0  0  0
    3.6129   -1.6738    0.0000 C   0  0  0  0  0  0  0  0  0  0  0  0
    4.8171   -2.7488    0.0000 C   0  0  0  0  0  0  0  0  0  0  0  0
    0.8777   -4.9668    0.0000 C   0  0  0  0  0  0  0  0  0  0  0  0
    6.0895   -0.8641    0.0000 C   0  0  0  0  0  0  0  0  0  0  0  0
    2.5855   -2.7488    0.0000 Cl  0  0  0  0  0  0  0  0  0  0  0  0
    5.5656   -4.2116    0.0000 Cl  0  0  0  0  0  0  0  0  0  0  0  0
    1.3336   -1.6738    0.0000 Cl  0  0  0  0  0  0  0  0  0  0  0  0
    4.3953   -3.1434    0.0000 Cl  0  0  0  0  0  0  0  0  0  0  0  0
    5.5928   -2.7488    0.0000 Cl  0  0  0  0  0  0  0  0  0  0  0  0
    1.3131   -3.1434    0.0000 Cl  0  0  0  0  0  0  0  0  0  0  0  0
    3.6129   -1.0070    0.0000 Cl  0  0  0  0  0  0  0  0  0  0  0  0
    3.2727   -4.8852    0.0000 Cl  0  0  0  0  0  0  0  0  0  0  0  0
    0.0000   -4.3341    0.0000 Cl  0  0  0  0  0  0  0  0  0  0  0  0
    0.6668   -5.9398    0.0000 Cl  0  0  0  0  0  0  0  0  0  0  0  0
    6.3616    0.0000    0.0000 Cl  0  0  0  0  0  0  0  0  0  0  0  0
    6.8039   -1.4764    0.0000 Cl  0  0  0  0  0  0  0  0  0  0  0  0
  1  3  1  0  0  0  0
  1  5  1  0  0  0  0
  1  7  1  0  0  0  0
  1 13  1  0  0  0  0
  2  7  1  0  0  0  0
  2  4  1  0  0  0  0
  2 14  1  0  0  0  0
  2  5  1  0  0  0  0
  3  6  1  0  0  0  0
  3  8  1  0  0  0  0
  3 11  1  0  0  0  0
  4 12  1  0  0  0  0
  4  8  1  0  0  0  0
  4  6  1  0  0  0  0
  5  9  1  0  0  0  0
  5 16  1  0  0  0  0
  6 18  1  0  0  0  0
  6  9  1  0  0  0  0
  7 10  1  0  0  0  0
  7 17  1  0  0  0  0
  8 15  1  0  0  0  0
  8 10  1  0  0  0  0
  9 19  1  0  0  0  0
  9 20  1  0  0  0  0
 10 21  1  0  0  0  0
 10 22  1  0  0  0  0
M  END
>  <DSSTox_RID>
20895

>  <DSSTox_CID>
895

>  <DSSTox_Generic_SID>
20895

>  <DSSTox_FileID>
939_CPDBAS_v5d

>  <STRUCTURE_Formula>
C10Cl12

>  <STRUCTURE_MolecularWeight>
545.543

>  <STRUCTURE_ChemicalType>
defined organic

>  <STRUCTURE_TestedForm_DefinedOrganic>
parent

>  <STRUCTURE_Shown>
tested chemical

>  <TestSubstance_ChemicalName>
Mirex

>  <TestSubstance_CASRN>
2385-85-5

>  <TestSubstance_Description>
single chemical compound

>  <ChemicalNote>
stereochem

>  <STRUCTURE_ChemicalName_IUPAC>
1,1a,2,2,3,3a,4,5,5,5a,5b,6-dodecachlorooctahydro-1H-1,3,4-(methanetriyl)cyclobuta[cd]pentalene

>  <STRUCTURE_SMILES>
ClC53C1(Cl)C4(Cl)C2(Cl)C1(Cl)C(Cl)(Cl)C5(Cl)C2(Cl)C3(Cl)C4(Cl)Cl

>  <STRUCTURE_Parent_SMILES>
ClC53C1(Cl)C4(Cl)C2(Cl)C1(Cl)C(Cl)(Cl)C5(Cl)C2(Cl)C3(Cl)C4(Cl)Cl

>  <STRUCTURE_InChI>
InChI=1/C10Cl12/c11-1-2(12)7(17)4(14)3(13,5(1,15)9(7,19)20)6(1,16)10(21,22)8(2,4)18

>  <STRUCTURE_InChIKey>
GVYLCNUFSHDAAW-UHFFFAOYAV

>  <StudyType>
Carcinogenicity

>  <Endpoint>
TD50; Tumor Target Sites

>  <Species>
rat; mouse

>  <ActivityOutcome_CPDBAS_Mutagenicity>
inactive

>  <TD50_Rat_mg>
1.77

>  <TD50_Rat_mmol>
0.00324

>  <ActivityScore_CPDBAS_Rat>
51

>  <TD50_Rat_Note>
TD50 is harmonic mean of more than one positive test

>  <TargetSites_Rat_Male>
adrenal gland; kidney; liver

>  <TargetSites_Rat_Female>
hematopoietic system; liver

>  <ActivityOutcome_CPDBAS_Rat>
active

>  <TD50_Mouse_mg>
1.45

>  <TD50_Mouse_mmol>
0.00266

>  <ActivityScore_CPDBAS_Mouse>
57

>  <TD50_Mouse_Note>
TD50 is harmonic mean of more than one positive test

>  <TargetSites_Mouse_Male>
liver

>  <TargetSites_Mouse_Female>
liver

>  <ActivityOutcome_CPDBAS_Mouse>
active

>  <ActivityOutcome_CPDBAS_SingleCellCall>
active

>  <ActivityOutcome_CPDBAS_MultiCellCall>
active

>  <ActivityOutcome_CPDBAS_MultiCellCall_Details>
multisite active; multisex active; multispecies active

>  <NTP_TechnicalReport>
TR 313; additional results included in CPDB

>  <ChemicalPage_URL>
http://potency.berkeley.edu/chempages/MIREX.html

$$$$



 21 25  0  0  0  0  0  0  0  0999 V2000
    2.0533   -1.6453    0.0000 C   0  0  0  0  0  0  0  0  0  0  0  0
    3.5515   -3.0900    0.0000 C   0  0  0  0  0  0  0  0  0  0  0  0
    3.2170   -2.7021    0.0000 C   0  0  0  0  0  0  0  0  0  0  0  0
    4.7353   -4.1400    0.0000 C   0  0  0  0  0  0  0  0  0  0  0  0
    2.0533   -3.0900    0.0000 C   0  0  3  0  0  0  0  0  0  0  0  0
    3.2170   -4.1400    0.0000 C   0  0  3  0  0  0  0  0  0  0  0  0
    3.5515   -1.6453    0.0000 C   0  0  3  0  0  0  0  0  0  0  0  0
    4.7353   -2.7021    0.0000 C   0  0  3  0  0  0  0  0  0  0  0  0
    0.8628   -4.8824    0.0000 C   0  0  0  0  0  0  0  0  0  0  0  0
    5.9860   -0.8494    0.0000 C   0  0  0  0  0  0  0  0  0  0  0  0
    2.5415   -2.7021    0.0000 Cl  0  0  0  0  0  0  0  0  0  0  0  0
    5.4710   -4.1400    0.0000 Cl  0  0  0  0  0  0  0  0  0  0  0  0
    4.3206   -3.0900    0.0000 Cl  0  0  0  0  0  0  0  0  0  0  0  0
    5.4977   -2.7021    0.0000 Cl  0  0  0  0  0  0  0  0  0  0  0  0
    1.2908   -3.0900    0.0000 Cl  0  0  0  0  0  0  0  0  0  0  0  0
    3.5515   -0.9899    0.0000 Cl  0  0  0  0  0  0  0  0  0  0  0  0
    3.2170   -4.8022    0.0000 Cl  0  0  0  0  0  0  0  0  0  0  0  0
    0.0000   -4.2604    0.0000 Cl  0  0  0  0  0  0  0  0  0  0  0  0
    0.6554   -5.8388    0.0000 Cl  0  0  0  0  0  0  0  0  0  0  0  0
    6.2535    0.0000    0.0000 Cl  0  0  0  0  0  0  0  0  0  0  0  0
    6.6882   -1.4513    0.0000 Cl  0  0  0  0  0  0  0  0  0  0  0  0
  1  3  1  0  0  0  0
  1  5  1  0  0  0  0
  1  7  1  0  0  0  0
  2  7  1  0  0  0  0
  2  4  1  0  0  0  0
  2 13  1  0  0  0  0
  2  5  1  0  0  0  0
  3  6  1  0  0  0  0
  3  8  1  0  0  0  0
  3 11  1  0  0  0  0
  4 12  1  0  0  0  0
  4  8  1  0  0  0  0
  4  6  1  0  0  0  0
  5  9  1  0  0  0  0
  5 15  1  0  0  0  0
  6 17  1  0  0  0  0
  6  9  1  0  0  0  0
  7 10  1  0  0  0  0
  7 16  1  0  0  0  0
  8 14  1  0  0  0  0
  8 10  1  0  0  0  0
  9 18  1  0  0  0  0
  9 19  1  0  0  0  0
 10 20  1  0  0  0  0
 10 21  1  0  0  0  0
M  END
>  <DSSTox_RID>
20896

>  <DSSTox_CID>
896

>  <DSSTox_Generic_SID>
20896

>  <DSSTox_FileID>
940_CPDBAS_v5d

>  <STRUCTURE_Formula>
C10HCl11

>  <STRUCTURE_MolecularWeight>
511.0979

>  <STRUCTURE_ChemicalType>
defined organic

>  <STRUCTURE_TestedForm_DefinedOrganic>
parent

>  <STRUCTURE_Shown>
tested chemical

>  <TestSubstance_ChemicalName>
Mirex, photo-

>  <TestSubstance_CASRN>
39801-14-4

>  <TestSubstance_Description>
single chemical compound

>  <ChemicalNote>
stereochem

>  <STRUCTURE_ChemicalName_IUPAC>
1,1a,2,2,3,3a,4,5,5,5a,5b-undecachlorooctahydro-1H-1,3,4-(methanetriyl)cyclobuta[cd]pentalene

>  <STRUCTURE_SMILES>
ClC13C5(Cl)C2(Cl)C4C(Cl)(C(Cl)(Cl)C12Cl)C3(Cl)C4(Cl)C5(Cl)Cl

>  <STRUCTURE_Parent_SMILES>
ClC13C5(Cl)C2(Cl)C4C(Cl)(C(Cl)(Cl)C12Cl)C3(Cl)C4(Cl)C5(Cl)Cl

>  <STRUCTURE_InChI>
InChI=1/C10HCl11/c11-2-1-3(12)5(14)4(1,13)10(20,21)7(2,16)8(5,17)6(2,15)9(3,18)19/h1H

>  <STRUCTURE_InChIKey>
KFDNXHKRTQRVGV-UHFFFAOYAD

>  <StudyType>
Carcinogenicity

>  <Endpoint>
TD50; Tumor Target Sites

>  <Species>
rat

>  <TD50_Rat_mg>
1.46

>  <TD50_Rat_mmol>
0.00286

>  <ActivityScore_CPDBAS_Rat>
52

>  <TargetSites_Rat_Male>
thyroid gland

>  <ActivityOutcome_CPDBAS_Rat>
active

>  <ActivityOutcome_CPDBAS_SingleCellCall>
active

>  <ChemicalPage_URL>
http://potency.berkeley.edu/chempages/MIREX,%20PHOTO-.html

$$$$



 27 27  0  0  1  0  0  0  0  0999 V2000
    8.5749   -0.6583    0.0000 C   0  0  0  0  0  0  0  0  0  0  0  0
    9.7270    0.0000    0.0000 C   0  0  0  0  0  0  0  0  0  0  0  0
   10.7145   -0.8888    0.0000 C   0  0  2  0  0  0  0  0  0  0  0  0
   10.1713   -2.1067    0.0000 C   0  0  1  0  0  0  0  0  0  0  0  0
    8.8382   -1.9586    0.0000 C   0  0  1  0  0  0  0  0  0  0  0  0
    7.9494   -2.9461    0.0000 C   0  0  0  0  0  0  0  0  0  0  0  0
    6.6657   -2.6169    0.0000 C   0  0  0  0  0  0  0  0  0  0  0  0
    5.7275   -3.5550    0.0000 C   0  0  0  0  0  0  0  0  0  0  0  0
    4.4438   -3.2094    0.0000 C   0  0  0  0  0  0  0  0  0  0  0  0
    3.5057   -4.1475    0.0000 C   0  0  0  0  0  0  0  0  0  0  0  0
    2.2219   -3.8019    0.0000 C   0  0  0  0  0  0  0  0  0  0  0  0
    1.2838   -4.7400    0.0000 C   0  0  0  0  0  0  0  0  0  0  0  0
    0.0000   -4.3944    0.0000 O   0  0  0  0  0  0  0  0  0  0  0  0
    1.6294   -6.0238    0.0000 O   0  0  0  0  0  0  0  0  0  0  0  0
    2.9131   -6.3694    0.0000 C   0  0  0  0  0  0  0  0  0  0  0  0
   10.8297   -3.2588    0.0000 C   0  0  0  0  0  0  0  0  0  0  0  0
   12.1628   -3.2588    0.0000 C   0  0  0  0  0  0  0  0  0  0  0  0
   12.8211   -4.4109    0.0000 C   0  0  0  0  0  0  0  0  0  0  0  0
   14.1543   -4.4109    0.0000 C   0  0  3  0  0  0  0  0  0  0  0  0
   15.4874   -4.4109    0.0000 O   0  0  0  0  0  0  0  0  0  0  0  0
   14.1543   -3.0777    0.0000 C   0  0  0  0  0  0  0  0  0  0  0  0
   15.3064   -2.4194    0.0000 C   0  0  0  0  0  0  0  0  0  0  0  0
   15.3064   -1.0863    0.0000 C   0  0  0  0  0  0  0  0  0  0  0  0
   16.4585   -0.4115    0.0000 C   0  0  0  0  0  0  0  0  0  0  0  0
   14.1543   -5.7440    0.0000 C   0  0  0  0  0  0  0  0  0  0  0  0
   12.0147   -0.6090    0.0000 O   0  0  0  0  0  0  0  0  0  0  0  0
    7.3569   -0.1317    0.0000 O   0  0  0  0  0  0  0  0  0  0  0  0
  1  2  1  0  0  0  0
  1  5  1  0  0  0  0
  1 27  2  0  0  0  0
  2  3  1  0  0  0  0
  3  4  1  0  0  0  0
  3 26  1  1  0  0  0
  4  5  1  0  0  0  0
  4 16  1  6  0  0  0
  5  6  1  1  0  0  0
  6  7  1  0  0  0  0
  7  8  1  0  0  0  0
  8  9  1  0  0  0  0
  9 10  1  0  0  0  0
 10 11  1  0  0  0  0
 11 12  1  0  0  0  0
 12 13  2  0  0  0  0
 12 14  1  0  0  0  0
 14 15  1  0  0  0  0
 16 17  2  0  0  0  0
 17 18  1  0  0  0  0
 18 19  1  0  0  0  0
 19 20  1  0  0  0  0
 19 21  1  0  0  0  0
 19 25  1  0  0  0  0
 21 22  1  0  0  0  0
 22 23  1  0  0  0  0
 23 24  1  0  0  0  0
M  END
>  <DSSTox_RID>
20897

>  <DSSTox_CID>
897

>  <DSSTox_Generic_SID>
20897

>  <DSSTox_FileID>
941_CPDBAS_v5d

>  <STRUCTURE_Formula>
C22H38O5

>  <STRUCTURE_MolecularWeight>
382.53412

>  <STRUCTURE_ChemicalType>
defined organic

>  <STRUCTURE_TestedForm_DefinedOrganic>
parent

>  <STRUCTURE_Shown>
tested chemical

>  <TestSubstance_ChemicalName>
Misoprostol

>  <TestSubstance_CASRN>
59122-46-2

>  <TestSubstance_Description>
single chemical compound

>  <ChemicalNote>
stereochem

>  <STRUCTURE_ChemicalName_IUPAC>
methyl (11alpha,13E)-11,16-dihydroxy-16-methyl-9-oxoprost-13-en-1-oate

>  <STRUCTURE_SMILES>
C1(C[C@H]([C@@H]([C@H]1CCCCCCC(=O)OC)/C=C/CC(O)(CCCC)C)O)=O

>  <STRUCTURE_Parent_SMILES>
C1(C[C@H]([C@@H]([C@H]1CCCCCCC(=O)OC)/C=C/CC(O)(CCCC)C)O)=O

>  <STRUCTURE_InChI>
InChI=1/C22H38O5/c1-4-5-14-22(2,26)15-10-12-18-17(19(23)16-20(18)24)11-8-6-7-9-13-21(25)27-3/h10,12,17-18,20,24,26H,4-9,11,13-16H2,1-3H3/b12-10+/t17-,18-,20-,22?/m1/s1

>  <STRUCTURE_InChIKey>
OJLOPKGSLYJEMD-URPKTTJQBH

>  <StudyType>
Carcinogenicity

>  <Endpoint>
TD50; Tumor Target Sites

>  <Species>
rat; mouse

>  <ActivityScore_CPDBAS_Rat>
0

>  <TD50_Rat_Note>
no positive results

>  <TargetSites_Rat_Male>
no positive results

>  <TargetSites_Rat_Female>
no positive results

>  <ActivityOutcome_CPDBAS_Rat>
inactive

>  <ActivityScore_CPDBAS_Mouse>
0

>  <TD50_Mouse_Note>
no positive results

>  <TargetSites_Mouse_Male>
no positive results

>  <TargetSites_Mouse_Female>
no positive results

>  <ActivityOutcome_CPDBAS_Mouse>
inactive

>  <ActivityOutcome_CPDBAS_SingleCellCall>
inactive

>  <ActivityOutcome_CPDBAS_MultiCellCall>
inactive

>  <ActivityOutcome_CPDBAS_MultiCellCall_Details>
multisex inactive; multispecies inactive

>  <ChemicalPage_URL>
http://potency.berkeley.edu/chempages/MISOPROSTOL.html

$$$$



 27 30  0  0  1  0  0  0  0  0999 V2000
    5.5521   -5.5934    0.0000 C   0  0  1  0  0  0  0  0  0  0  0  0
    6.8346   -6.0154    0.0000 C   0  0  1  0  0  0  0  0  0  0  0  0
    4.7660   -6.6857    0.0000 N   0  0  0  0  0  0  0  0  0  0  0  0
    3.4918   -4.9398    0.0000 C   0  0  0  0  0  0  0  0  0  0  0  0
    3.4918   -6.2719    0.0000 C   0  0  0  0  0  0  0  0  0  0  0  0
    4.7660   -4.5095    0.0000 C   0  0  1  0  0  0  0  0  0  0  0  0
    7.9185   -6.6691    0.0000 N   0  0  0  0  0  0  0  0  0  0  0  0
    6.8346   -7.3476    0.0000 C   0  0  1  0  0  0  0  0  0  0  0  0
    2.3416   -4.2696    0.0000 C   0  0  0  0  0  0  0  0  0  0  0  0
    2.3416   -6.9422    0.0000 C   0  0  0  0  0  0  0  0  0  0  0  0
    1.1667   -6.2719    0.0000 C   0  0  0  0  0  0  0  0  0  0  0  0
    1.1667   -4.9398    0.0000 C   0  0  0  0  0  0  0  0  0  0  0  0
    5.5604   -7.7613    0.0000 C   0  0  0  0  0  0  0  0  0  0  0  0
    5.1963   -3.2518    0.0000 C   0  0  0  0  0  0  0  0  0  0  0  0
    4.7164   -0.9929    0.0000 C   0  0  0  0  0  0  0  0  0  0  0  0
    2.3416   -8.2743    0.0000 O   0  0  0  0  0  0  0  0  0  0  0  0
    2.3416   -2.9208    0.0000 O   0  0  0  0  0  0  0  0  0  0  0  0
    4.3109   -2.2589    0.0000 O   0  0  0  0  0  0  0  0  0  0  0  0
    6.3050   -4.5095    0.0000 O   0  0  0  0  0  0  0  0  0  0  0  0
    0.0000   -4.3109    0.0000 N   0  0  0  0  0  0  0  0  0  0  0  0
    6.0320   -0.7199    0.0000 O   0  0  0  0  0  0  0  0  0  0  0  0
    3.8145    0.0000    0.0000 N   0  0  0  0  0  0  0  0  0  0  0  0
    0.0000   -6.9256    0.0000 C   0  0  0  0  0  0  0  0  0  0  0  0
    6.3050   -3.2270    0.0000 C   0  0  0  0  0  0  0  0  0  0  0  0
    7.9185   -5.2128    0.0000 H   0  0  0  0  0  0  0  0  0  0  0  0
    7.9185   -8.1419    0.0000 H   0  0  0  0  0  0  0  0  0  0  0  0
    3.9965   -3.4835    0.0000 H   0  0  0  0  0  0  0  0  0  0  0  0
  1  2  1  0  0  0  0
  1  3  1  0  0  0  0
  1  6  1  0  0  0  0
  1 19  1  6  0  0  0
  7  2  1  1  0  0  0
  2  8  1  0  0  0  0
  2 25  1  6  0  0  0
  3  5  1  0  0  0  0
  3 13  1  0  0  0  0
  4  6  1  0  0  0  0
  4  9  1  0  0  0  0
  4  5  2  0  0  0  0
  5 10  1  0  0  0  0
  6 14  1  1  0  0  0
  6 27  1  6  0  0  0
  7  8  1  1  0  0  0
  8 26  1  6  0  0  0
  8 13  1  0  0  0  0
  9 12  1  0  0  0  0
  9 17  2  0  0  0  0
 10 11  1  0  0  0  0
 10 16  2  0  0  0  0
 11 23  1  0  0  0  0
 11 12  2  0  0  0  0
 12 20  1  0  0  0  0
 14 18  1  0  0  0  0
 15 18  1  0  0  0  0
 15 21  2  0  0  0  0
 15 22  1  0  0  0  0
 19 24  1  0  0  0  0
M  END
>  <DSSTox_RID>
20898

>  <DSSTox_CID>
898

>  <DSSTox_Generic_SID>
20898

>  <DSSTox_FileID>
942_CPDBAS_v5d

>  <STRUCTURE_Formula>
C15H18N4O5

>  <STRUCTURE_MolecularWeight>
334.3272

>  <STRUCTURE_ChemicalType>
defined organic

>  <STRUCTURE_TestedForm_DefinedOrganic>
parent

>  <STRUCTURE_Shown>
tested chemical

>  <TestSubstance_ChemicalName>
Mitomycin-C

>  <TestSubstance_CASRN>
50-07-7

>  <TestSubstance_Description>
single chemical compound

>  <ChemicalNote>
stereochem, tautomers

>  <STRUCTURE_ChemicalName_IUPAC>
[(1aS,8S,8aR,8bS)-6-amino-8a-methoxy-5-methyl-4,7-dioxo-1,1a,2,4,7,8,8a,8b-octahydroazireno[2',3':3,4]pyrrolo[1,2-a]indol-8-yl]methyl carbamate

>  <STRUCTURE_SMILES>
O=C(C(C)=C4N)C2=C(C4=O)[C@](COC(N)=O)([H])[C@@](N2C3)(OC)[C@@]1([H])N[C@@]31[H]

>  <STRUCTURE_Parent_SMILES>
O=C(C(C)=C4N)C2=C(C4=O)[C@](COC(N)=O)([H])[C@@](N2C3)(OC)[C@@]1([H])N[C@@]31[H]

>  <STRUCTURE_InChI>
InChI=1/C15H18N4O5/c1-5-9(16)12(21)8-6(4-24-14(17)22)15(23-2)13-7(18-13)3-19(15)10(8)11(5)20/h6-7,13,18H,3-4,16H2,1-2H3,(H2,17,22)/t6-,7+,13+,15-/m1/s1/f/h17H2

>  <STRUCTURE_InChIKey>
NWIBSHFKIJFRCO-XPNHIKBZDF

>  <StudyType>
Carcinogenicity

>  <Endpoint>
TD50; Tumor Target Sites

>  <Species>
rat

>  <ActivityOutcome_CPDBAS_Mutagenicity>
active

>  <TD50_Rat_mg>
0.00102

>  <TD50_Rat_mmol>
0.00000305

>  <ActivityScore_CPDBAS_Rat>
83

>  <TD50_Rat_Note>
positive test results only by intraperitoneal or intravenous injection; TD50 is harmonic mean of more than one positive test

>  <TargetSites_Rat_Male>
peritoneal cavity

>  <TargetSites_Rat_Female>
peritoneal cavity

>  <ActivityOutcome_CPDBAS_Rat>
active

>  <ActivityOutcome_CPDBAS_SingleCellCall>
active

>  <ActivityOutcome_CPDBAS_MultiCellCall>
active

>  <ActivityOutcome_CPDBAS_MultiCellCall_Details>
multisex active

>  <Note_CPDBAS>
TD50_Rat_Note modified v5a

>  <ChemicalPage_URL>
http://potency.berkeley.edu/chempages/MITOMYCIN-C.html

$$$$



  5  4  0  0  0  0  0  0  0  0999 V2000
    3.4567   -1.9945    0.0000 C   0  0  0  0  0  0  0  0  0  0  0  0
    2.3056   -1.3308    0.0000 C   0  0  0  0  0  0  0  0  0  0  0  0
    2.3056    0.0000    0.0000 O   0  0  0  0  0  0  0  0  0  0  0  0
    1.1511   -1.9945    0.0000 N   0  0  0  0  0  0  0  0  0  0  0  0
    0.0000   -1.3308    0.0000 N   0  0  0  0  0  0  0  0  0  0  0  0
  1  2  1  0  0  0  0
  2  3  2  0  0  0  0
  2  4  1  0  0  0  0
  4  5  1  0  0  0  0
M  END
>  <DSSTox_RID>
20900

>  <DSSTox_CID>
900

>  <DSSTox_Generic_SID>
20900

>  <DSSTox_FileID>
944_CPDBAS_v5d

>  <STRUCTURE_Formula>
C2H6N2O

>  <STRUCTURE_MolecularWeight>
74.0822

>  <STRUCTURE_ChemicalType>
defined organic

>  <STRUCTURE_TestedForm_DefinedOrganic>
parent

>  <STRUCTURE_Shown>
tested chemical

>  <TestSubstance_ChemicalName>
Monoacetyl hydrazine

>  <TestSubstance_CASRN>
1068-57-1

>  <TestSubstance_Description>
single chemical compound

>  <STRUCTURE_ChemicalName_IUPAC>
acetohydrazide

>  <STRUCTURE_SMILES>
CC(=O)NN

>  <STRUCTURE_Parent_SMILES>
CC(=O)NN

>  <STRUCTURE_InChI>
InChI=1/C2H6N2O/c1-2(5)4-3/h3H2,1H3,(H,4,5)/f/h4H

>  <STRUCTURE_InChIKey>
OFLXLNCGODUUOT-JLSKMEETCJ

>  <StudyType>
Carcinogenicity

>  <Endpoint>
TD50; Tumor Target Sites

>  <Species>
mouse

>  <TD50_Mouse_mg>
9.85

>  <TD50_Mouse_mmol>
0.133

>  <ActivityScore_CPDBAS_Mouse>
38

>  <TD50_Mouse_Note>
TD50 is harmonic mean of more than one positive test

>  <TargetSites_Mouse_Male>
lung

>  <TargetSites_Mouse_Female>
lung

>  <ActivityOutcome_CPDBAS_Mouse>
active

>  <ActivityOutcome_CPDBAS_SingleCellCall>
active

>  <ActivityOutcome_CPDBAS_MultiCellCall>
active

>  <ActivityOutcome_CPDBAS_MultiCellCall_Details>
multisex active

>  <ChemicalPage_URL>
http://potency.berkeley.edu/chempages/MONOACETYL%20HYDRAZINE.html

$$$$



  5  4  0  0  0  0  0  0  0  0999 V2000
    3.4567   -1.9945    0.0000 O   0  0  0  0  0  0  0  0  0  0  0  0
    2.3056   -1.3308    0.0000 C   0  0  0  0  0  0  0  0  0  0  0  0
    2.3056    0.0000    0.0000 O   0  0  0  0  0  0  0  0  0  0  0  0
    1.1511   -1.9945    0.0000 C   0  0  0  0  0  0  0  0  0  0  0  0
    0.0000   -1.3308    0.0000 Cl  0  0  0  0  0  0  0  0  0  0  0  0
  1  2  1  0  0  0  0
  2  3  2  0  0  0  0
  2  4  1  0  0  0  0
  4  5  1  0  0  0  0
M  END
>  <DSSTox_RID>
20901

>  <DSSTox_CID>
901

>  <DSSTox_Generic_SID>
20901

>  <DSSTox_FileID>
945_CPDBAS_v5d

>  <STRUCTURE_Formula>
C2H3ClO2

>  <STRUCTURE_MolecularWeight>
94.497

>  <STRUCTURE_ChemicalType>
defined organic

>  <STRUCTURE_TestedForm_DefinedOrganic>
parent

>  <STRUCTURE_Shown>
tested chemical

>  <TestSubstance_ChemicalName>
Monochloroacetic acid

>  <TestSubstance_CASRN>
79-11-8

>  <TestSubstance_Description>
single chemical compound

>  <STRUCTURE_ChemicalName_IUPAC>
chloroacetic acid

>  <STRUCTURE_SMILES>
OC(=O)CCl

>  <STRUCTURE_Parent_SMILES>
OC(=O)CCl

>  <STRUCTURE_InChI>
InChI=1/C2H3ClO2/c3-1-2(4)5/h1H2,(H,4,5)/f/h4H

>  <STRUCTURE_InChIKey>
FOCAUTSVDIKZOP-JLSKMEETCI

>  <StudyType>
Carcinogenicity

>  <Endpoint>
TD50; Tumor Target Sites

>  <Species>
rat; mouse

>  <ActivityOutcome_CPDBAS_Mutagenicity>
inactive

>  <ActivityScore_CPDBAS_Rat>
0

>  <TD50_Rat_Note>
no positive results

>  <TargetSites_Rat_Male>
no positive results

>  <TargetSites_Rat_Female>
no positive results

>  <ActivityOutcome_CPDBAS_Rat>
inactive

>  <ActivityScore_CPDBAS_Mouse>
0

>  <TD50_Mouse_Note>
no positive results

>  <TargetSites_Mouse_Male>
no positive results

>  <TargetSites_Mouse_Female>
no positive results

>  <ActivityOutcome_CPDBAS_Mouse>
inactive

>  <ActivityOutcome_CPDBAS_SingleCellCall>
inactive

>  <ActivityOutcome_CPDBAS_MultiCellCall>
inactive

>  <ActivityOutcome_CPDBAS_MultiCellCall_Details>
multisex inactive; multispecies inactive

>  <NTP_TechnicalReport>
TR 396

>  <ChemicalPage_URL>
http://potency.berkeley.edu/chempages/MONOCHLOROACETIC%20ACID.html

$$$$



 24 26  0  0  1  0  0  0  0  0999 V2000
    4.1190   -1.8467    0.0000 C   0  0  2  0  0  0  0  0  0  0  0  0
    2.0631   -1.8467    0.0000 C   0  0  1  0  0  0  0  0  0  0  0  0
    1.0460   -3.6357    0.0000 C   0  0  0  0  0  0  0  0  0  0  0  0
    1.0460   -2.4454    0.0000 C   0  0  2  0  0  0  0  0  0  0  0  0
    2.0631   -4.2344    0.0000 O   0  0  0  0  0  0  0  0  0  0  0  0
    5.1217   -2.4454    0.0000 C   0  0  0  0  0  0  0  0  0  0  0  0
    2.0631   -5.4102    0.0000 C   0  0  1  0  0  0  0  0  0  0  0  0
    4.1190   -5.4102    0.0000 C   0  0  0  0  0  0  0  0  0  0  0  0
    3.0946   -7.1992    0.0000 N   0  0  0  0  0  0  0  0  0  0  0  0
    3.0946   -6.0089    0.0000 C   0  0  1  0  0  0  0  0  0  0  0  0
    5.1217   -3.6357    0.0000 O   0  0  0  0  0  0  0  0  0  0  0  0
    5.1217   -6.0089    0.0000 C   0  0  0  0  0  0  0  0  0  0  0  0
    1.0460   -6.0089    0.0000 C   0  0  0  0  0  0  0  0  0  0  0  0
    4.1190   -4.2344    0.0000 C   0  0  0  0  0  0  0  0  0  0  0  0
    5.1217   -7.1992    0.0000 C   0  0  0  0  0  0  0  0  0  0  0  0
    1.0460   -7.2136    0.0000 C   0  0  0  0  0  0  0  0  0  0  0  0
    0.0000   -4.2200    0.0000 O   0  0  0  0  0  0  0  0  0  0  0  0
    6.1676   -1.8467    0.0000 O   0  0  0  0  0  0  0  0  0  0  0  0
    3.6645   -1.0027    0.0000 O   0  0  0  0  0  0  0  0  0  0  0  0
    1.5581   -0.9594    0.0000 O   0  0  0  0  0  0  0  0  0  0  0  0
    5.5833   -0.4040    0.0000 C   0  0  0  0  0  0  0  0  0  0  0  0
    2.3877    0.0000    0.0000 C   0  0  0  0  0  0  0  0  0  0  0  0
    0.0433   -1.8467    0.0000 C   0  0  0  0  0  0  0  0  0  0  0  0
    3.0946   -4.7826    0.0000 H   0  0  0  0  0  0  0  0  0  0  0  0
  1  2  1  0  0  0  0
  1  6  1  0  0  0  0
  1 19  1  1  0  0  0
  1 21  1  6  0  0  0
  2  4  1  0  0  0  0
  2 20  1  1  0  0  0
  2 22  1  6  0  0  0
  3  4  1  0  0  0  0
  3  5  1  0  0  0  0
  3 17  2  0  0  0  0
  4 23  1  6  0  0  0
  7  5  1  1  0  0  0
  6 11  1  0  0  0  0
  6 18  2  0  0  0  0
  7 13  1  0  0  0  0
  7 10  1  0  0  0  0
  8 14  1  0  0  0  0
  8 10  1  0  0  0  0
  8 12  2  0  0  0  0
  9 10  1  0  0  0  0
  9 16  1  0  0  0  0
  9 15  1  0  0  0  0
 10 24  1  6  0  0  0
 11 14  1  0  0  0  0
 12 15  1  0  0  0  0
 13 16  1  0  0  0  0
M  END
>  <DSSTox_RID>
20902

>  <DSSTox_CID>
902

>  <DSSTox_Generic_SID>
20902

>  <DSSTox_FileID>
946_CPDBAS_v5d

>  <STRUCTURE_Formula>
C16H23NO6

>  <STRUCTURE_MolecularWeight>
325.3569

>  <STRUCTURE_ChemicalType>
defined organic

>  <STRUCTURE_TestedForm_DefinedOrganic>
parent

>  <STRUCTURE_Shown>
tested chemical

>  <TestSubstance_ChemicalName>
Monocrotaline

>  <TestSubstance_CASRN>
315-22-0

>  <TestSubstance_Description>
single chemical compound

>  <ChemicalNote>
stereochem

>  <STRUCTURE_ChemicalName_IUPAC>
(3R,4R,5R,13aR,13bR)-4,5-dihydroxy-3,4,5-trimethyl-4,5,8,10,12,13,13a,13b-octahydro-2H-[1,6]dioxacycloundecino[2,3,4-gh]pyrrolizine-2,6(3H)-dione

>  <STRUCTURE_SMILES>
O=C1O[C@@H]3CCN2C\C=C(\COC(=O)[C@](C)(O)[C@](C)(O)[C@H]1C)[C@@H]23

>  <STRUCTURE_Parent_SMILES>
O=C1O[C@@H]3CCN2C\C=C(\COC(=O)[C@](C)(O)[C@](C)(O)[C@H]1C)[C@@H]23

>  <STRUCTURE_InChI>
InChI=1/C16H23NO6/c1-9-13(18)23-11-5-7-17-6-4-10(12(11)17)8-22-14(19)16(3,21)15(9,2)20/h4,9,11-12,20-21H,5-8H2,1-3H3/t9-,11+,12+,15+,16-/m0/s1

>  <STRUCTURE_InChIKey>
QVCMHGGNRFRMAD-XFGHUUIABQ

>  <StudyType>
Carcinogenicity

>  <Endpoint>
TD50; Tumor Target Sites

>  <Species>
rat

>  <ActivityOutcome_CPDBAS_Mutagenicity>
inactive

>  <TD50_Rat_mg>
0.94

>  <TD50_Rat_mmol>
0.00289

>  <ActivityScore_CPDBAS_Rat>
52

>  <TD50_Rat_Note>
TD50 is harmonic mean of more than one positive test

>  <TargetSites_Rat_Male>
liver

>  <ActivityOutcome_CPDBAS_Rat>
active

>  <ActivityOutcome_CPDBAS_SingleCellCall>
active

>  <ChemicalPage_URL>
http://potency.berkeley.edu/chempages/MONOCROTALINE.html

$$$$



 14 14  0  0  0  0  0  0  0  0999 V2000
    2.3457   -1.9848    0.0000 C   0  0  0  0  0  0  0  0  0  0  0  0
    1.2700   -2.7690    0.0000 N   0  0  0  0  0  0  0  0  0  0  0  0
    3.4283   -2.7690    0.0000 C   0  0  0  0  0  0  0  0  0  0  0  0
    1.6794   -4.0390    0.0000 C   0  0  0  0  0  0  0  0  0  0  0  0
    3.0119   -4.0390    0.0000 N   0  0  0  0  0  0  0  0  0  0  0  0
    2.3457   -0.6662    0.0000 C   0  0  0  0  0  0  0  0  0  0  0  0
    1.2006    0.0000    0.0000 N   0  0  0  0  0  0  0  0  0  0  0  0
    4.6774   -2.3595    0.0000 N   0  0  0  0  0  0  0  0  0  0  0  0
    4.9550   -1.0549    0.0000 C   0  0  0  0  0  0  0  0  0  0  0  0
    0.0000   -2.3595    0.0000 C   0  0  0  0  0  0  0  0  0  0  0  0
    3.4907    0.0000    0.0000 O   0  0  0  0  0  0  0  0  0  0  0  0
    5.6698   -3.2548    0.0000 N   0  0  0  0  0  0  0  0  0  0  0  0
    0.0555   -0.6662    0.0000 C   0  0  0  0  0  0  0  0  0  0  0  0
    6.9398   -2.8384    0.0000 O   0  0  0  0  0  0  0  0  0  0  0  0
  1  2  1  0  0  0  0
  1  6  1  0  0  0  0
  1  3  2  0  0  0  0
  2  4  1  0  0  0  0
  2 10  1  0  0  0  0
  3  5  1  0  0  0  0
  3  8  1  0  0  0  0
  4  5  2  0  0  0  0
  6  7  1  0  0  0  0
  6 11  2  0  0  0  0
  7 13  1  0  0  0  0
  8  9  1  0  0  0  0
  8 12  1  0  0  0  0
 12 14  2  0  0  0  0
M  END
>  <DSSTox_RID>
40811

>  <DSSTox_CID>
20238

>  <DSSTox_Generic_SID>
40238

>  <DSSTox_FileID>
948_CPDBAS_v5d

>  <STRUCTURE_Formula>
C7H11N5O2

>  <STRUCTURE_MolecularWeight>
197.1945

>  <STRUCTURE_ChemicalType>
defined organic

>  <STRUCTURE_TestedForm_DefinedOrganic>
parent

>  <STRUCTURE_Shown>
tested chemical

>  <TestSubstance_ChemicalName>
Mononitrosocaffeidine

>  <TestSubstance_CASRN>
145438-96-6

>  <TestSubstance_Description>
single chemical compound

>  <STRUCTURE_ChemicalName_IUPAC>
N,1-dimethyl-4-[methyl(nitroso)amino]-1H-imidazole-5-carboxamide

>  <STRUCTURE_SMILES>
CN(N=O)C1=C(C(NC)=O)N(C)C=N1

>  <STRUCTURE_Parent_SMILES>
CN(N=O)C1=C(C(NC)=O)N(C)C=N1

>  <STRUCTURE_InChI>
InChI=1/C7H11N5O2/c1-8-7(13)5-6(12(3)10-14)9-4-11(5)2/h4H,1-3H3,(H,8,13)/f/h8H

>  <STRUCTURE_InChIKey>
YVJMGYAIELXOQU-FZOZFQFYCC

>  <StudyType>
Carcinogenicity

>  <Endpoint>
TD50; Tumor Target Sites

>  <Species>
rat

>  <TD50_Rat_mg>
1

>  <TD50_Rat_mmol>
0.00507

>  <ActivityScore_CPDBAS_Rat>
49

>  <TargetSites_Rat_BothSexes>
nasal cavity

>  <ActivityOutcome_CPDBAS_Rat>
active

>  <ActivityOutcome_CPDBAS_SingleCellCall>
active

>  <Note_CPDBAS>
Rat added v5a; chemical added v5a

>  <ChemicalPage_URL>
http://potency.berkeley.edu/chempages/MONONITROSOCAFFEIDINE.html

$$$$



 24 27  0  0  0  0  0  0  0  0999 V2000
    3.4525    0.0000    0.0000 C   0  0  0  0  0  0  0  0  0  0  0  0
    2.3085   -0.6742    0.0000 C   0  0  0  0  0  0  0  0  0  0  0  0
    2.3085   -2.0020    0.0000 C   0  0  0  0  0  0  0  0  0  0  0  0
    3.4525   -2.6660    0.0000 C   0  0  0  0  0  0  0  0  0  0  0  0
    4.6067   -2.0020    0.0000 C   0  0  0  0  0  0  0  0  0  0  0  0
    4.6067   -0.6742    0.0000 C   0  0  0  0  0  0  0  0  0  0  0  0
    5.7609   -2.6660    0.0000 N   0  0  0  0  0  0  0  0  0  0  0  0
    5.7609   -3.9938    0.0000 C   0  0  0  0  0  0  0  0  0  0  0  0
    4.6067   -4.6578    0.0000 N   0  0  0  0  0  0  0  0  0  0  0  0
    3.4525   -3.9938    0.0000 C   0  0  0  0  0  0  0  0  0  0  0  0
    2.3085   -4.6578    0.0000 N   0  0  0  0  0  0  0  0  0  0  0  0
    2.3085   -5.9856    0.0000 C   0  0  0  0  0  0  0  0  0  0  0  0
    1.1542   -6.6496    0.0000 C   0  0  0  0  0  0  0  0  0  0  0  0
    0.0000   -5.9856    0.0000 O   0  0  0  0  0  0  0  0  0  0  0  0
    0.0000   -4.6578    0.0000 C   0  0  0  0  0  0  0  0  0  0  0  0
    1.1542   -3.9938    0.0000 C   0  0  0  0  0  0  0  0  0  0  0  0
    6.9151   -4.6578    0.0000 C   0  0  0  0  0  0  0  0  0  0  0  0
    8.1307   -4.1164    0.0000 C   0  0  0  0  0  0  0  0  0  0  0  0
    9.0193   -5.1072    0.0000 C   0  0  0  0  0  0  0  0  0  0  0  0
    8.3554   -6.2614    0.0000 C   0  0  0  0  0  0  0  0  0  0  0  0
    7.0479   -5.9856    0.0000 S   0  0  0  0  0  0  0  0  0  0  0  0
    8.8967   -7.4769    0.0000 N   0  3  0  0  0  0  0  0  0  0  0  0
   10.2144   -7.6097    0.0000 O   0  5  0  0  0  0  0  0  0  0  0  0
    8.1102   -8.5494    0.0000 O   0  0  0  0  0  0  0  0  0  0  0  0
  1  2  2  0  0  0  0
  1  6  1  0  0  0  0
  2  3  1  0  0  0  0
  3  4  2  0  0  0  0
  4  5  1  0  0  0  0
  4 10  1  0  0  0  0
  5  6  2  0  0  0  0
  5  7  1  0  0  0  0
  7  8  2  0  0  0  0
  8  9  1  0  0  0  0
  8 17  1  0  0  0  0
  9 10  2  0  0  0  0
 10 11  1  0  0  0  0
 11 12  1  0  0  0  0
 11 16  1  0  0  0  0
 12 13  1  0  0  0  0
 13 14  1  0  0  0  0
 14 15  1  0  0  0  0
 15 16  1  0  0  0  0
 17 18  2  0  0  0  0
 17 21  1  0  0  0  0
 18 19  1  0  0  0  0
 19 20  2  0  0  0  0
 20 21  1  0  0  0  0
 20 22  1  0  0  0  0
 22 23  1  0  0  0  0
 22 24  2  0  0  0  0
M  END
>  <DSSTox_RID>
20908

>  <DSSTox_CID>
908

>  <DSSTox_Generic_SID>
20908

>  <DSSTox_FileID>
953_CPDBAS_v5d

>  <STRUCTURE_Formula>
C16H14N4O3S

>  <STRUCTURE_MolecularWeight>
342.3716

>  <STRUCTURE_ChemicalType>
defined organic

>  <STRUCTURE_TestedForm_DefinedOrganic>
parent

>  <STRUCTURE_Shown>
tested chemical

>  <TestSubstance_ChemicalName>
4-Morpholino-2-(5-nitro-2-thienyl)quinazoline

>  <TestSubstance_CASRN>
58139-48-3

>  <TestSubstance_Description>
single chemical compound

>  <STRUCTURE_ChemicalName_IUPAC>
4-morpholin-4-yl-2-(5-nitro-2-thienyl)quinazoline

>  <STRUCTURE_SMILES>
C1=CC=C2C(=C1)N=C(N=C2N3CCOCC3)C4=CC=C(S4)[N+]([O-])=O

>  <STRUCTURE_Parent_SMILES>
C1=CC=C2C(=C1)N=C(N=C2N3CCOCC3)C4=CC=C(S4)[N+]([O-])=O

>  <STRUCTURE_InChI>
InChI=1/C16H14N4O3S/c21-20(22)14-6-5-13(24-14)15-17-12-4-2-1-3-11(12)16(18-15)19-7-9-23-10-8-19/h1-6H,7-10H2

>  <STRUCTURE_InChIKey>
LNXOGILCIQPLRX-UHFFFAOYAT

>  <StudyType>
Carcinogenicity

>  <Endpoint>
TD50; Tumor Target Sites

>  <Species>
rat

>  <ActivityOutcome_CPDBAS_Mutagenicity>
active

>  <TD50_Rat_mg>
5.03

>  <TD50_Rat_mmol>
0.0147

>  <ActivityScore_CPDBAS_Rat>
45

>  <TargetSites_Rat_Female>
all tumor bearing animals

>  <ActivityOutcome_CPDBAS_Rat>
active

>  <ActivityOutcome_CPDBAS_SingleCellCall>
active

>  <ChemicalPage_URL>
http://potency.berkeley.edu/chempages/4-MORPHOLINO-2-(5-NITRO-2-THIENYL)QUINAZOLINE.html

$$$$



 14 13  0  0  0  0  0  0  0  0999 V2000
    8.0636   -2.6597    0.0000 O   0  0  0  0  0  0  0  0  0  0  0  0
    8.0636   -1.3345    0.0000 S   0  0  0  0  0  0  0  0  0  0  0  0
    6.7384   -1.3345    0.0000 O   0  0  0  0  0  0  0  0  0  0  0  0
    9.3981   -1.3345    0.0000 O   0  0  0  0  0  0  0  0  0  0  0  0
    8.0636    0.0000    0.0000 C   0  0  0  0  0  0  0  0  0  0  0  0
    6.9170   -3.3269    0.0000 C   0  0  0  0  0  0  0  0  0  0  0  0
    5.7610   -2.6597    0.0000 C   0  0  0  0  0  0  0  0  0  0  0  0
    4.6145   -3.3269    0.0000 C   0  0  0  0  0  0  0  0  0  0  0  0
    3.4585   -2.6597    0.0000 C   0  0  0  0  0  0  0  0  0  0  0  0
    2.3025   -3.3269    0.0000 O   0  0  0  0  0  0  0  0  0  0  0  0
    1.1560   -2.6597    0.0000 S   0  0  0  0  0  0  0  0  0  0  0  0
    0.4887   -3.8156    0.0000 O   0  0  0  0  0  0  0  0  0  0  0  0
    0.0000   -2.0018    0.0000 C   0  0  0  0  0  0  0  0  0  0  0  0
    1.8138   -1.5131    0.0000 O   0  0  0  0  0  0  0  0  0  0  0  0
  1  2  1  0  0  0  0
  1  6  1  0  0  0  0
  2  3  2  0  0  0  0
  2  4  2  0  0  0  0
  2  5  1  0  0  0  0
  6  7  1  0  0  0  0
  7  8  1  0  0  0  0
  8  9  1  0  0  0  0
  9 10  1  0  0  0  0
 10 11  1  0  0  0  0
 11 12  2  0  0  0  0
 11 13  1  0  0  0  0
 11 14  2  0  0  0  0
M  END
>  <DSSTox_RID>
20910

>  <DSSTox_CID>
910

>  <DSSTox_Generic_SID>
20910

>  <DSSTox_FileID>
955_CPDBAS_v5d

>  <STRUCTURE_Formula>
C6H14O6S2

>  <STRUCTURE_MolecularWeight>
246.3018

>  <STRUCTURE_ChemicalType>
defined organic

>  <STRUCTURE_TestedForm_DefinedOrganic>
parent

>  <STRUCTURE_Shown>
tested chemical

>  <TestSubstance_ChemicalName>
Myleran

>  <TestSubstance_CASRN>
55-98-1

>  <TestSubstance_Description>
single chemical compound

>  <STRUCTURE_ChemicalName_IUPAC>
butane-1,4-diyl dimethanesulfonate

>  <STRUCTURE_SMILES>
O(S(=O)(=O)C)CCCCOS(=O)(C)=O

>  <STRUCTURE_Parent_SMILES>
O(S(=O)(=O)C)CCCCOS(=O)(C)=O

>  <STRUCTURE_InChI>
InChI=1/C6H14O6S2/c1-13(7,8)11-5-3-4-6-12-14(2,9)10/h3-6H2,1-2H3

>  <STRUCTURE_InChIKey>
COVZYZSDYWQREU-UHFFFAOYAO

>  <StudyType>
Carcinogenicity

>  <Endpoint>
TD50; Tumor Target Sites

>  <Species>
rat

>  <ActivityOutcome_CPDBAS_Mutagenicity>
active

>  <ActivityScore_CPDBAS_Rat>
0

>  <TD50_Rat_Note>
no positive results

>  <TargetSites_Rat_Male>
no positive results

>  <ActivityOutcome_CPDBAS_Rat>
inactive

>  <ActivityOutcome_CPDBAS_SingleCellCall>
inactive

>  <ChemicalPage_URL>
http://potency.berkeley.edu/chempages/MYLERAN.html

$$$$



 23 25  0  0  0  0  0  0  0  0999 V2000
    1.6416   -5.7565    0.0000 C   0  0  0  0  0  0  0  0  0  0  0  0
    2.2982   -4.6074    0.0000 C   0  0  0  0  0  0  0  0  0  0  0  0
    1.1491   -3.9398    0.0000 C   0  0  0  0  0  0  0  0  0  0  0  0
    0.0000   -4.6074    0.0000 O   0  0  0  0  0  0  0  0  0  0  0  0
    1.1491   -2.6156    0.0000 O   0  0  0  0  0  0  0  0  0  0  0  0
    2.9658   -3.4583    0.0000 O   0  0  0  0  0  0  0  0  0  0  0  0
    4.3010   -3.4583    0.0000 C   0  0  0  0  0  0  0  0  0  0  0  0
    4.9576   -2.2982    0.0000 C   0  0  0  0  0  0  0  0  0  0  0  0
    6.2928   -2.2982    0.0000 C   0  0  0  0  0  0  0  0  0  0  0  0
    6.9604   -3.4583    0.0000 C   0  0  0  0  0  0  0  0  0  0  0  0
    6.2928   -4.6074    0.0000 C   0  0  0  0  0  0  0  0  0  0  0  0
    4.9576   -4.6074    0.0000 C   0  0  0  0  0  0  0  0  0  0  0  0
    8.2846   -3.4583    0.0000 C   0  0  3  0  0  0  0  0  0  0  0  0
    8.9522   -4.6074    0.0000 C   0  0  0  0  0  0  0  0  0  0  0  0
   10.2764   -4.6074    0.0000 C   0  0  0  0  0  0  0  0  0  0  0  0
   10.9440   -3.4583    0.0000 C   0  0  0  0  0  0  0  0  0  0  0  0
   10.2764   -2.2982    0.0000 C   0  0  0  0  0  0  0  0  0  0  0  0
    8.9522   -2.2982    0.0000 C   0  0  0  0  0  0  0  0  0  0  0  0
    8.2846   -1.1491    0.0000 C   0  0  0  0  0  0  0  0  0  0  0  0
    8.9522    0.0000    0.0000 C   0  0  0  0  0  0  0  0  0  0  0  0
   10.2764    0.0000    0.0000 C   0  0  0  0  0  0  0  0  0  0  0  0
   10.9440   -1.1491    0.0000 C   0  0  0  0  0  0  0  0  0  0  0  0
    3.4583   -5.2750    0.0000 C   0  0  0  0  0  0  0  0  0  0  0  0
  1  2  1  0  0  0  0
  2  3  1  0  0  0  0
  2  6  1  0  0  0  0
  2 23  1  0  0  0  0
  3  4  1  0  0  0  0
  3  5  2  0  0  0  0
  6  7  1  0  0  0  0
  7  8  2  0  0  0  0
  7 12  1  0  0  0  0
  8  9  1  0  0  0  0
  9 10  2  0  0  0  0
 10 11  1  0  0  0  0
 10 13  1  0  0  0  0
 11 12  2  0  0  0  0
 13 14  1  0  0  0  0
 13 18  1  0  0  0  0
 14 15  1  0  0  0  0
 15 16  1  0  0  0  0
 16 17  1  0  0  0  0
 17 18  2  0  0  0  0
 17 22  1  0  0  0  0
 18 19  1  0  0  0  0
 19 20  2  0  0  0  0
 20 21  1  0  0  0  0
 21 22  2  0  0  0  0
M  END
>  <DSSTox_RID>
20911

>  <DSSTox_CID>
911

>  <DSSTox_Generic_SID>
20911

>  <DSSTox_FileID>
956_CPDBAS_v5d

>  <STRUCTURE_Formula>
C20H22O3

>  <STRUCTURE_MolecularWeight>
310.392

>  <STRUCTURE_ChemicalType>
defined organic

>  <STRUCTURE_TestedForm_DefinedOrganic>
parent

>  <STRUCTURE_Shown>
tested chemical

>  <TestSubstance_ChemicalName>
Nafenopin

>  <TestSubstance_CASRN>
3771-19-5

>  <TestSubstance_Description>
single chemical compound

>  <STRUCTURE_ChemicalName_IUPAC>
2-methyl-2-{[4-(1,2,3,4-tetrahydronaphthalen-1-yl)phenyl]oxy}propanoic acid

>  <STRUCTURE_SMILES>
CC(C(O)=O)(OC1=CC=C(C=C1)C2CCCC3=C2C=CC=C3)C

>  <STRUCTURE_Parent_SMILES>
CC(C(O)=O)(OC1=CC=C(C=C1)C2CCCC3=C2C=CC=C3)C

>  <STRUCTURE_InChI>
InChI=1/C20H22O3/c1-20(2,19(21)22)23-16-12-10-15(11-13-16)18-9-5-7-14-6-3-4-8-17(14)18/h3-4,6,8,10-13,18H,5,7,9H2,1-2H3,(H,21,22)/f/h21H

>  <STRUCTURE_InChIKey>
XJGBDJOMWKAZJS-PKSOQXRJCS

>  <StudyType>
Carcinogenicity

>  <Endpoint>
TD50; Tumor Target Sites

>  <Species>
rat; hamster

>  <ActivityOutcome_CPDBAS_Mutagenicity>
inactive

>  <TD50_Rat_mg>
11

>  <TD50_Rat_mmol>
0.0354

>  <ActivityScore_CPDBAS_Rat>
41

>  <TD50_Rat_Note>
TD50 is harmonic mean of more than one positive test; greater than ten-fold variation among TD50 values for positive results

>  <TargetSites_Rat_Male>
liver; pancreas

>  <TargetSites_Rat_Female>
liver

>  <ActivityOutcome_CPDBAS_Rat>
active

>  <ActivityScore_CPDBAS_Hamster>
0

>  <TD50_Hamster_Note>
no positive results

>  <TargetSites_Hamster_Male>
no positive results

>  <ActivityOutcome_CPDBAS_Hamster>
inactive

>  <ActivityOutcome_CPDBAS_SingleCellCall>
active

>  <ActivityOutcome_CPDBAS_MultiCellCall>
active

>  <ActivityOutcome_CPDBAS_MultiCellCall_Details>
multisite active; multisex active

>  <ChemicalPage_URL>
http://potency.berkeley.edu/chempages/NAFENOPIN.html

$$$$



 17 18  0  0  0  0  0  0  0  0999 V2000
    1.1543   -3.9880    0.0000 O   0  0  0  0  0  0  0  0  0  0  0  0
    2.3016   -3.3245    0.0000 C   0  0  0  0  0  0  0  0  0  0  0  0
    3.4558   -3.9880    0.0000 C   0  0  0  0  0  0  0  0  0  0  0  0
    4.6101   -3.3245    0.0000 C   0  0  0  0  0  0  0  0  0  0  0  0
    5.7574   -3.9880    0.0000 N   0  0  0  0  0  0  0  0  0  0  0  0
    5.7574   -5.3220    0.0000 C   0  0  0  0  0  0  0  0  0  0  0  0
    4.6101   -5.9855    0.0000 C   0  0  0  0  0  0  0  0  0  0  0  0
    3.4558   -5.3220    0.0000 C   0  0  0  0  0  0  0  0  0  0  0  0
    6.9117   -5.9855    0.0000 C   0  0  0  0  0  0  0  0  0  0  0  0
    4.6101   -1.9975    0.0000 N   0  0  0  0  0  0  0  0  0  0  0  0
    3.4558   -1.3270    0.0000 C   0  0  0  0  0  0  0  0  0  0  0  0
    2.3016   -1.9975    0.0000 C   0  0  0  0  0  0  0  0  0  0  0  0
    1.1543   -1.3270    0.0000 C   0  0  0  0  0  0  0  0  0  0  0  0
    1.1543    0.0000    0.0000 O   0  0  0  0  0  0  0  0  0  0  0  0
    0.0000   -1.9975    0.0000 O   0  0  0  0  0  0  0  0  0  0  0  0
    5.7574   -1.3270    0.0000 C   0  0  0  0  0  0  0  0  0  0  0  0
    5.7574    0.0000    0.0000 C   0  0  0  0  0  0  0  0  0  0  0  0
  1  2  2  0  0  0  0
  2  3  1  0  0  0  0
  2 12  1  0  0  0  0
  3  4  2  0  0  0  0
  3  8  1  0  0  0  0
  4  5  1  0  0  0  0
  4 10  1  0  0  0  0
  5  6  2  0  0  0  0
  6  7  1  0  0  0  0
  6  9  1  0  0  0  0
  7  8  2  0  0  0  0
 10 11  1  0  0  0  0
 10 16  1  0  0  0  0
 11 12  2  0  0  0  0
 12 13  1  0  0  0  0
 13 14  2  0  0  0  0
 13 15  1  0  0  0  0
 16 17  1  0  0  0  0
M  END
>  <DSSTox_RID>
20912

>  <DSSTox_CID>
912

>  <DSSTox_Generic_SID>
20912

>  <DSSTox_FileID>
957_CPDBAS_v5d

>  <STRUCTURE_Formula>
C12H12N2O3

>  <STRUCTURE_MolecularWeight>
232.2353

>  <STRUCTURE_ChemicalType>
defined organic

>  <STRUCTURE_TestedForm_DefinedOrganic>
parent

>  <STRUCTURE_Shown>
tested chemical

>  <TestSubstance_ChemicalName>
Nalidixic acid

>  <TestSubstance_CASRN>
389-08-2

>  <TestSubstance_Description>
single chemical compound

>  <STRUCTURE_ChemicalName_IUPAC>
1-ethyl-7-methyl-4-oxo-1,4-dihydro-1,8-naphthyridine-3-carboxylic acid

>  <STRUCTURE_SMILES>
O=C1C2=C(N=C(C=C2)C)N(C=C1C(=O)O)CC

>  <STRUCTURE_Parent_SMILES>
O=C1C2=C(N=C(C=C2)C)N(C=C1C(=O)O)CC

>  <STRUCTURE_InChI>
InChI=1/C12H12N2O3/c1-3-14-6-9(12(16)17)10(15)8-5-4-7(2)13-11(8)14/h4-6H,3H2,1-2H3,(H,16,17)/f/h16H

>  <STRUCTURE_InChIKey>
MHWLWQUZZRMNGJ-WYUMXYHSCS

>  <StudyType>
Carcinogenicity

>  <Endpoint>
TD50; Tumor Target Sites

>  <Species>
rat; mouse

>  <ActivityOutcome_CPDBAS_Mutagenicity>
inactive

>  <TD50_Rat_mg>
201

>  <TD50_Rat_mmol>
0.866

>  <ActivityScore_CPDBAS_Rat>
26

>  <TD50_Rat_Note>
TD50 is harmonic mean of more than one positive test

>  <TargetSites_Rat_Male>
preputial gland

>  <TargetSites_Rat_Female>
clitoral gland

>  <ActivityOutcome_CPDBAS_Rat>
active

>  <ActivityScore_CPDBAS_Mouse>
0

>  <TD50_Mouse_Note>
no positive results

>  <TargetSites_Mouse_Male>
no positive results

>  <TargetSites_Mouse_Female>
no positive results

>  <ActivityOutcome_CPDBAS_Mouse>
inactive

>  <ActivityOutcome_CPDBAS_SingleCellCall>
active

>  <ActivityOutcome_CPDBAS_MultiCellCall>
active

>  <ActivityOutcome_CPDBAS_MultiCellCall_Details>
multisite active; multisex active

>  <NTP_TechnicalReport>
TR 368

>  <ChemicalPage_URL>
http://potency.berkeley.edu/chempages/NALIDIXIC%20ACID.html

$$$$



 10 11  0  0  0  0  0  0  0  0999 V2000
    3.4558    0.0000    0.0000 C   0  0  0  0  0  0  0  0  0  0  0  0
    2.3039   -0.6635    0.0000 C   0  0  0  0  0  0  0  0  0  0  0  0
    2.3039   -1.9952    0.0000 C   0  0  0  0  0  0  0  0  0  0  0  0
    3.4558   -2.6587    0.0000 C   0  0  0  0  0  0  0  0  0  0  0  0
    4.6078   -1.9952    0.0000 C   0  0  0  0  0  0  0  0  0  0  0  0
    4.6078   -0.6635    0.0000 C   0  0  0  0  0  0  0  0  0  0  0  0
    1.1519   -2.6587    0.0000 C   0  0  0  0  0  0  0  0  0  0  0  0
    0.0000   -1.9952    0.0000 C   0  0  0  0  0  0  0  0  0  0  0  0
    0.0000   -0.6635    0.0000 C   0  0  0  0  0  0  0  0  0  0  0  0
    1.1519    0.0000    0.0000 C   0  0  0  0  0  0  0  0  0  0  0  0
  1  2  2  0  0  0  0
  1  6  1  0  0  0  0
  2  3  1  0  0  0  0
  2 10  1  0  0  0  0
  3  4  2  0  0  0  0
  3  7  1  0  0  0  0
  4  5  1  0  0  0  0
  5  6  2  0  0  0  0
  7  8  2  0  0  0  0
  8  9  1  0  0  0  0
  9 10  2  0  0  0  0
M  END
>  <DSSTox_RID>
20913

>  <DSSTox_CID>
913

>  <DSSTox_Generic_SID>
20913

>  <DSSTox_FileID>
958_CPDBAS_v5d

>  <STRUCTURE_Formula>
C10H8

>  <STRUCTURE_MolecularWeight>
128.1705

>  <STRUCTURE_ChemicalType>
defined organic

>  <STRUCTURE_TestedForm_DefinedOrganic>
parent

>  <STRUCTURE_Shown>
tested chemical

>  <TestSubstance_ChemicalName>
Naphthalene

>  <TestSubstance_CASRN>
91-20-3

>  <TestSubstance_Description>
single chemical compound

>  <STRUCTURE_ChemicalName_IUPAC>
naphthalene

>  <STRUCTURE_SMILES>
C1=C2C(=CC=C1)C=CC=C2

>  <STRUCTURE_Parent_SMILES>
C1=C2C(=CC=C1)C=CC=C2

>  <STRUCTURE_InChI>
InChI=1/C10H8/c1-2-6-10-8-4-3-7-9(10)5-1/h1-8H

>  <STRUCTURE_InChIKey>
UFWIBTONFRDIAS-UHFFFAOYAC

>  <StudyType>
Carcinogenicity

>  <Endpoint>
TD50; Tumor Target Sites

>  <Species>
rat; mouse

>  <ActivityOutcome_CPDBAS_Mutagenicity>
inactive

>  <TD50_Rat_mg>
22.1

>  <TD50_Rat_mmol>
0.172

>  <ActivityScore_CPDBAS_Rat>
34

>  <TD50_Rat_Note>
TD50 is harmonic mean of more than one positive test

>  <TargetSites_Rat_Male>
nasal cavity

>  <TargetSites_Rat_Female>
nasal cavity

>  <ActivityOutcome_CPDBAS_Rat>
active

>  <TD50_Mouse_mg>
163

>  <TD50_Mouse_mmol>
1.27

>  <ActivityScore_CPDBAS_Mouse>
27

>  <TargetSites_Mouse_Male>
no positive results

>  <TargetSites_Mouse_Female>
lung

>  <ActivityOutcome_CPDBAS_Mouse>
active

>  <ActivityOutcome_CPDBAS_SingleCellCall>
active

>  <ActivityOutcome_CPDBAS_MultiCellCall>
active

>  <ActivityOutcome_CPDBAS_MultiCellCall_Details>
multisite active; multisex active; multispecies active

>  <Note_CPDBAS>
Rat added v5a

>  <NTP_TechnicalReport>
TR 410

>  <ChemicalPage_URL>
http://potency.berkeley.edu/chempages/NAPHTHALENE.html

$$$$



 14 15  0  0  0  0  0  0  0  0999 V2000
    6.9108   -1.9972    0.0000 N   0  0  0  0  0  0  0  0  0  0  0  0
    5.7567   -2.6606    0.0000 C   0  0  0  0  0  0  0  0  0  0  0  0
    5.7567   -3.9944    0.0000 O   0  0  0  0  0  0  0  0  0  0  0  0
    4.6095   -1.9972    0.0000 C   0  0  0  0  0  0  0  0  0  0  0  0
    3.4554   -2.6606    0.0000 C   0  0  0  0  0  0  0  0  0  0  0  0
    2.3013   -1.9972    0.0000 C   0  0  0  0  0  0  0  0  0  0  0  0
    1.1541   -2.6606    0.0000 C   0  0  0  0  0  0  0  0  0  0  0  0
    1.1541   -3.9944    0.0000 C   0  0  0  0  0  0  0  0  0  0  0  0
    2.3013   -4.6579    0.0000 C   0  0  0  0  0  0  0  0  0  0  0  0
    3.4554   -3.9944    0.0000 C   0  0  0  0  0  0  0  0  0  0  0  0
    0.0000   -1.9972    0.0000 C   0  0  0  0  0  0  0  0  0  0  0  0
    0.0000   -0.6703    0.0000 C   0  0  0  0  0  0  0  0  0  0  0  0
    1.1541    0.0000    0.0000 C   0  0  0  0  0  0  0  0  0  0  0  0
    2.3013   -0.6703    0.0000 C   0  0  0  0  0  0  0  0  0  0  0  0
  1  2  1  0  0  0  0
  2  3  2  0  0  0  0
  2  4  1  0  0  0  0
  4  5  1  0  0  0  0
  5  6  2  0  0  0  0
  5 10  1  0  0  0  0
  6  7  1  0  0  0  0
  6 14  1  0  0  0  0
  7  8  2  0  0  0  0
  7 11  1  0  0  0  0
  8  9  1  0  0  0  0
  9 10  2  0  0  0  0
 11 12  2  0  0  0  0
 12 13  1  0  0  0  0
 13 14  2  0  0  0  0
M  END
>  <DSSTox_RID>
20914

>  <DSSTox_CID>
914

>  <DSSTox_Generic_SID>
20914

>  <DSSTox_FileID>
959_CPDBAS_v5d

>  <STRUCTURE_Formula>
C12H11NO

>  <STRUCTURE_MolecularWeight>
185.2218

>  <STRUCTURE_ChemicalType>
defined organic

>  <STRUCTURE_TestedForm_DefinedOrganic>
parent

>  <STRUCTURE_Shown>
tested chemical

>  <TestSubstance_ChemicalName>
1-Naphthalene acetamide

>  <TestSubstance_CASRN>
86-86-2

>  <TestSubstance_Description>
single chemical compound

>  <STRUCTURE_ChemicalName_IUPAC>
2-naphthalen-1-ylacetamide

>  <STRUCTURE_SMILES>
NC(=O)CC1=C2C(=CC=C1)C=CC=C2

>  <STRUCTURE_Parent_SMILES>
NC(=O)CC1=C2C(=CC=C1)C=CC=C2

>  <STRUCTURE_InChI>
InChI=1/C12H11NO/c13-12(14)8-10-6-3-5-9-4-1-2-7-11(9)10/h1-7H,8H2,(H2,13,14)/f/h13H2

>  <STRUCTURE_InChIKey>
XFNJVKMNNVCYEK-DLGLGFIGCX

>  <StudyType>
Carcinogenicity

>  <Endpoint>
TD50; Tumor Target Sites

>  <Species>
mouse

>  <ActivityOutcome_CPDBAS_Mutagenicity>
active

>  <ActivityScore_CPDBAS_Mouse>
0

>  <TD50_Mouse_Note>
no positive results

>  <TargetSites_Mouse_Male>
no positive results

>  <TargetSites_Mouse_Female>
no positive results

>  <ActivityOutcome_CPDBAS_Mouse>
inactive

>  <ActivityOutcome_CPDBAS_SingleCellCall>
inactive

>  <ActivityOutcome_CPDBAS_MultiCellCall>
inactive

>  <ActivityOutcome_CPDBAS_MultiCellCall_Details>
multisex inactive

>  <ChemicalPage_URL>
http://potency.berkeley.edu/chempages/1-NAPHTHALENE%20ACETAMIDE.html

$$$$



 14 15  0  0  0  0  0  0  0  0999 V2000
    6.9108   -1.9972    0.0000 O   0  0  0  0  0  0  0  0  0  0  0  0
    5.7567   -2.6606    0.0000 C   0  0  0  0  0  0  0  0  0  0  0  0
    5.7567   -3.9944    0.0000 O   0  0  0  0  0  0  0  0  0  0  0  0
    4.6095   -1.9972    0.0000 C   0  0  0  0  0  0  0  0  0  0  0  0
    3.4554   -2.6606    0.0000 C   0  0  0  0  0  0  0  0  0  0  0  0
    2.3013   -1.9972    0.0000 C   0  0  0  0  0  0  0  0  0  0  0  0
    1.1541   -2.6606    0.0000 C   0  0  0  0  0  0  0  0  0  0  0  0
    1.1541   -3.9944    0.0000 C   0  0  0  0  0  0  0  0  0  0  0  0
    2.3013   -4.6579    0.0000 C   0  0  0  0  0  0  0  0  0  0  0  0
    3.4554   -3.9944    0.0000 C   0  0  0  0  0  0  0  0  0  0  0  0
    0.0000   -1.9972    0.0000 C   0  0  0  0  0  0  0  0  0  0  0  0
    0.0000   -0.6703    0.0000 C   0  0  0  0  0  0  0  0  0  0  0  0
    1.1541    0.0000    0.0000 C   0  0  0  0  0  0  0  0  0  0  0  0
    2.3013   -0.6703    0.0000 C   0  0  0  0  0  0  0  0  0  0  0  0
  1  2  1  0  0  0  0
  2  3  2  0  0  0  0
  2  4  1  0  0  0  0
  4  5  1  0  0  0  0
  5  6  2  0  0  0  0
  5 10  1  0  0  0  0
  6  7  1  0  0  0  0
  6 14  1  0  0  0  0
  7  8  2  0  0  0  0
  7 11  1  0  0  0  0
  8  9  1  0  0  0  0
  9 10  2  0  0  0  0
 11 12  2  0  0  0  0
 12 13  1  0  0  0  0
 13 14  2  0  0  0  0
M  END
>  <DSSTox_RID>
20915

>  <DSSTox_CID>
915

>  <DSSTox_Generic_SID>
20915

>  <DSSTox_FileID>
960_CPDBAS_v5d

>  <STRUCTURE_Formula>
C12H10O2

>  <STRUCTURE_MolecularWeight>
186.2066

>  <STRUCTURE_ChemicalType>
defined organic

>  <STRUCTURE_TestedForm_DefinedOrganic>
parent

>  <STRUCTURE_Shown>
tested chemical

>  <TestSubstance_ChemicalName>
1-Naphthalene acetic acid

>  <TestSubstance_CASRN>
86-87-3

>  <TestSubstance_Description>
single chemical compound

>  <STRUCTURE_ChemicalName_IUPAC>
naphthalen-1-ylacetic acid

>  <STRUCTURE_SMILES>
OC(=O)CC1=C2C(=CC=C1)C=CC=C2

>  <STRUCTURE_Parent_SMILES>
OC(=O)CC1=C2C(=CC=C1)C=CC=C2

>  <STRUCTURE_InChI>
InChI=1/C12H10O2/c13-12(14)8-10-6-3-5-9-4-1-2-7-11(9)10/h1-7H,8H2,(H,13,14)/f/h13H

>  <STRUCTURE_InChIKey>
PRPINYUDVPFIRX-NDKGDYFDCS

>  <StudyType>
Carcinogenicity

>  <Endpoint>
TD50; Tumor Target Sites

>  <Species>
mouse

>  <ActivityOutcome_CPDBAS_Mutagenicity>
inactive

>  <ActivityScore_CPDBAS_Mouse>
0

>  <TD50_Mouse_Note>
no positive results

>  <TargetSites_Mouse_Male>
no positive results

>  <TargetSites_Mouse_Female>
no positive results

>  <ActivityOutcome_CPDBAS_Mouse>
inactive

>  <ActivityOutcome_CPDBAS_SingleCellCall>
inactive

>  <ActivityOutcome_CPDBAS_MultiCellCall>
inactive

>  <ActivityOutcome_CPDBAS_MultiCellCall_Details>
multisex inactive

>  <ChemicalPage_URL>
http://potency.berkeley.edu/chempages/1-NAPHTHALENE%20ACETIC%20ACID.html

$$$$



 12 13  0  0  0  0  0  0  0  0999 V2000
    5.7579   -1.9922    0.0000 N   0  0  0  0  0  0  0  0  0  0  0  0
    4.6063   -2.6601    0.0000 C   0  0  0  0  0  0  0  0  0  0  0  0
    3.4547   -1.9922    0.0000 C   0  0  0  0  0  0  0  0  0  0  0  0
    2.3031   -2.6601    0.0000 C   0  0  0  0  0  0  0  0  0  0  0  0
    2.3031   -3.9902    0.0000 C   0  0  0  0  0  0  0  0  0  0  0  0
    3.4547   -4.6524    0.0000 C   0  0  0  0  0  0  0  0  0  0  0  0
    4.6063   -3.9902    0.0000 C   0  0  0  0  0  0  0  0  0  0  0  0
    1.1516   -1.9922    0.0000 C   0  0  0  0  0  0  0  0  0  0  0  0
    1.1516   -0.6622    0.0000 C   0  0  0  0  0  0  0  0  0  0  0  0
    2.3031    0.0000    0.0000 C   0  0  0  0  0  0  0  0  0  0  0  0
    3.4547   -0.6622    0.0000 C   0  0  0  0  0  0  0  0  0  0  0  0
    0.0000   -2.6601    0.0000 N   0  0  0  0  0  0  0  0  0  0  0  0
  1  2  1  0  0  0  0
  2  3  2  0  0  0  0
  2  7  1  0  0  0  0
  3  4  1  0  0  0  0
  3 11  1  0  0  0  0
  4  5  2  0  0  0  0
  4  8  1  0  0  0  0
  5  6  1  0  0  0  0
  6  7  2  0  0  0  0
  8  9  2  0  0  0  0
  8 12  1  0  0  0  0
  9 10  1  0  0  0  0
 10 11  2  0  0  0  0
M  END
>  <DSSTox_RID>
20916

>  <DSSTox_CID>
916

>  <DSSTox_Generic_SID>
20916

>  <DSSTox_FileID>
961_CPDBAS_v5d

>  <STRUCTURE_Formula>
C10H10N2

>  <STRUCTURE_MolecularWeight>
158.1998

>  <STRUCTURE_ChemicalType>
defined organic

>  <STRUCTURE_TestedForm_DefinedOrganic>
parent

>  <STRUCTURE_Shown>
tested chemical

>  <TestSubstance_ChemicalName>
1,5-Naphthalenediamine

>  <TestSubstance_CASRN>
2243-62-1

>  <TestSubstance_Description>
single chemical compound

>  <STRUCTURE_ChemicalName_IUPAC>
naphthalene-1,5-diamine

>  <STRUCTURE_SMILES>
NC1=C2C(=CC=C1)C(=CC=C2)N

>  <STRUCTURE_Parent_SMILES>
NC1=C2C(=CC=C1)C(=CC=C2)N

>  <STRUCTURE_InChI>
InChI=1/C10H10N2/c11-9-5-1-3-7-8(9)4-2-6-10(7)12/h1-6H,11-12H2

>  <STRUCTURE_InChIKey>
KQSABULTKYLFEV-UHFFFAOYAR

>  <StudyType>
Carcinogenicity

>  <Endpoint>
TD50; Tumor Target Sites

>  <Species>
rat; mouse

>  <ActivityOutcome_CPDBAS_Mutagenicity>
active

>  <TD50_Rat_mg>
69.6

>  <TD50_Rat_mmol>
0.44

>  <ActivityScore_CPDBAS_Rat>
29

>  <TargetSites_Rat_Male>
no positive results

>  <TargetSites_Rat_Female>
clitoral gland; uterus

>  <ActivityOutcome_CPDBAS_Rat>
active

>  <TD50_Mouse_mg>
162

>  <TD50_Mouse_mmol>
1.02

>  <ActivityScore_CPDBAS_Mouse>
28

>  <TD50_Mouse_Note>
TD50 is harmonic mean of more than one positive test

>  <TargetSites_Mouse_Male>
thyroid gland

>  <TargetSites_Mouse_Female>
liver; lung; thyroid gland

>  <ActivityOutcome_CPDBAS_Mouse>
active

>  <ActivityOutcome_CPDBAS_SingleCellCall>
active

>  <ActivityOutcome_CPDBAS_MultiCellCall>
active

>  <ActivityOutcome_CPDBAS_MultiCellCall_Details>
multisite active; multisex active; multispecies active

>  <NTP_TechnicalReport>
TR 143

>  <ChemicalPage_URL>
http://potency.berkeley.edu/chempages/1,5-NAPHTHALENEDIAMINE.html

$$$$



 28 32  0  0  0  0  0  0  0  0999 V2000
    3.4575   -1.9907    0.0000 C   0  0  0  0  0  0  0  0  0  0  0  0
    2.3050   -2.6642    0.0000 C   0  0  0  0  0  0  0  0  0  0  0  0
    2.3050   -3.9963    0.0000 C   0  0  0  0  0  0  0  0  0  0  0  0
    3.4575   -4.6548    0.0000 C   0  0  0  0  0  0  0  0  0  0  0  0
    4.6099   -3.9963    0.0000 C   0  0  0  0  0  0  0  0  0  0  0  0
    4.6099   -2.6642    0.0000 C   0  0  0  0  0  0  0  0  0  0  0  0
    5.7624   -1.9907    0.0000 N   0  0  0  0  0  0  0  0  0  0  0  0
    6.9149   -2.6642    0.0000 C   0  0  0  0  0  0  0  0  0  0  0  0
    8.0524   -1.9907    0.0000 C   0  0  0  0  0  0  0  0  0  0  0  0
    9.2049   -2.6642    0.0000 C   0  0  0  0  0  0  0  0  0  0  0  0
    9.2049   -3.9963    0.0000 C   0  0  0  0  0  0  0  0  0  0  0  0
    8.0524   -4.6548    0.0000 C   0  0  0  0  0  0  0  0  0  0  0  0
    6.9149   -3.9963    0.0000 C   0  0  0  0  0  0  0  0  0  0  0  0
   10.3574   -4.6548    0.0000 N   0  0  0  0  0  0  0  0  0  0  0  0
   11.5099   -3.9963    0.0000 C   0  0  0  0  0  0  0  0  0  0  0  0
   12.6624   -4.6548    0.0000 C   0  0  0  0  0  0  0  0  0  0  0  0
   13.8148   -3.9963    0.0000 C   0  0  0  0  0  0  0  0  0  0  0  0
   13.8148   -2.6642    0.0000 C   0  0  0  0  0  0  0  0  0  0  0  0
   12.6624   -1.9907    0.0000 C   0  0  0  0  0  0  0  0  0  0  0  0
   11.5099   -2.6642    0.0000 C   0  0  0  0  0  0  0  0  0  0  0  0
   12.6624   -0.6735    0.0000 C   0  0  0  0  0  0  0  0  0  0  0  0
   13.8148    0.0000    0.0000 C   0  0  0  0  0  0  0  0  0  0  0  0
   14.9673   -0.6735    0.0000 C   0  0  0  0  0  0  0  0  0  0  0  0
   14.9673   -1.9907    0.0000 C   0  0  0  0  0  0  0  0  0  0  0  0
    1.1525   -4.6548    0.0000 C   0  0  0  0  0  0  0  0  0  0  0  0
    0.0000   -3.9963    0.0000 C   0  0  0  0  0  0  0  0  0  0  0  0
    0.0000   -2.6642    0.0000 C   0  0  0  0  0  0  0  0  0  0  0  0
    1.1525   -1.9907    0.0000 C   0  0  0  0  0  0  0  0  0  0  0  0
  1  2  2  0  0  0  0
  1  6  1  0  0  0  0
  2  3  1  0  0  0  0
  2 28  1  0  0  0  0
  3  4  2  0  0  0  0
  3 25  1  0  0  0  0
  4  5  1  0  0  0  0
  5  6  2  0  0  0  0
  6  7  1  0  0  0  0
  7  8  1  0  0  0  0
  8  9  2  0  0  0  0
  8 13  1  0  0  0  0
  9 10  1  0  0  0  0
 10 11  2  0  0  0  0
 11 12  1  0  0  0  0
 11 14  1  0  0  0  0
 12 13  2  0  0  0  0
 14 15  1  0  0  0  0
 15 16  2  0  0  0  0
 15 20  1  0  0  0  0
 16 17  1  0  0  0  0
 17 18  2  0  0  0  0
 18 19  1  0  0  0  0
 18 24  1  0  0  0  0
 19 20  2  0  0  0  0
 19 21  1  0  0  0  0
 21 22  2  0  0  0  0
 22 23  1  0  0  0  0
 23 24  2  0  0  0  0
 25 26  2  0  0  0  0
 26 27  1  0  0  0  0
 27 28  2  0  0  0  0
M  END
>  <DSSTox_RID>
20918

>  <DSSTox_CID>
918

>  <DSSTox_Generic_SID>
20918

>  <DSSTox_FileID>
963_CPDBAS_v5d

>  <STRUCTURE_Formula>
C26H20N2

>  <STRUCTURE_MolecularWeight>
360.4504

>  <STRUCTURE_ChemicalType>
defined organic

>  <STRUCTURE_TestedForm_DefinedOrganic>
parent

>  <STRUCTURE_Shown>
tested chemical

>  <TestSubstance_ChemicalName>
sym.-dibeta-Naphthyl-p-phenylenediamine

>  <TestSubstance_CASRN>
93-46-9

>  <TestSubstance_Description>
single chemical compound

>  <STRUCTURE_ChemicalName_IUPAC>
N,N'-dinaphthalen-2-ylbenzene-1,4-diamine

>  <STRUCTURE_SMILES>
C1=C2C(=CC=C1NC3=CC=C(C=C3)NC4=CC=C5C(=C4)C=CC=C5)C=CC=C2

>  <STRUCTURE_Parent_SMILES>
C1=C2C(=CC=C1NC3=CC=C(C=C3)NC4=CC=C5C(=C4)C=CC=C5)C=CC=C2

>  <STRUCTURE_InChI>
InChI=1/C26H20N2/c1-3-7-21-17-25(11-9-19(21)5-1)27-23-13-15-24(16-14-23)28-26-12-10-20-6-2-4-8-22(20)18-26/h1-18,27-28H

>  <STRUCTURE_InChIKey>
VETPHHXZEJAYOB-UHFFFAOYAM

>  <StudyType>
Carcinogenicity

>  <Endpoint>
TD50; Tumor Target Sites

>  <Species>
mouse

>  <ActivityOutcome_CPDBAS_Mutagenicity>
active

>  <ActivityScore_CPDBAS_Mouse>
0

>  <TD50_Mouse_Note>
no positive results

>  <TargetSites_Mouse_Male>
no positive results

>  <TargetSites_Mouse_Female>
no positive results

>  <ActivityOutcome_CPDBAS_Mouse>
inactive

>  <ActivityOutcome_CPDBAS_SingleCellCall>
inactive

>  <ActivityOutcome_CPDBAS_MultiCellCall>
inactive

>  <ActivityOutcome_CPDBAS_MultiCellCall_Details>
multisex inactive

>  <ChemicalPage_URL>
http://potency.berkeley.edu/chempages/sym.-dibeta-NAPHTHYL-p-PHENYLENEDIAMINE.html

$$$$



 14 15  0  0  0  0  0  0  0  0999 V2000
    6.9108   -1.9972    0.0000 N   0  0  0  0  0  0  0  0  0  0  0  0
    5.7567   -2.6606    0.0000 C   0  0  0  0  0  0  0  0  0  0  0  0
    5.7567   -3.9944    0.0000 S   0  0  0  0  0  0  0  0  0  0  0  0
    4.6095   -1.9972    0.0000 N   0  0  0  0  0  0  0  0  0  0  0  0
    3.4554   -2.6606    0.0000 C   0  0  0  0  0  0  0  0  0  0  0  0
    2.3013   -1.9972    0.0000 C   0  0  0  0  0  0  0  0  0  0  0  0
    1.1541   -2.6606    0.0000 C   0  0  0  0  0  0  0  0  0  0  0  0
    1.1541   -3.9944    0.0000 C   0  0  0  0  0  0  0  0  0  0  0  0
    2.3013   -4.6579    0.0000 C   0  0  0  0  0  0  0  0  0  0  0  0
    3.4554   -3.9944    0.0000 C   0  0  0  0  0  0  0  0  0  0  0  0
    0.0000   -1.9972    0.0000 C   0  0  0  0  0  0  0  0  0  0  0  0
    0.0000   -0.6703    0.0000 C   0  0  0  0  0  0  0  0  0  0  0  0
    1.1541    0.0000    0.0000 C   0  0  0  0  0  0  0  0  0  0  0  0
    2.3013   -0.6703    0.0000 C   0  0  0  0  0  0  0  0  0  0  0  0
  1  2  1  0  0  0  0
  2  3  2  0  0  0  0
  2  4  1  0  0  0  0
  4  5  1  0  0  0  0
  5  6  2  0  0  0  0
  5 10  1  0  0  0  0
  6  7  1  0  0  0  0
  6 14  1  0  0  0  0
  7  8  2  0  0  0  0
  7 11  1  0  0  0  0
  8  9  1  0  0  0  0
  9 10  2  0  0  0  0
 11 12  2  0  0  0  0
 12 13  1  0  0  0  0
 13 14  2  0  0  0  0
M  END
>  <DSSTox_RID>
20919

>  <DSSTox_CID>
919

>  <DSSTox_Generic_SID>
20919

>  <DSSTox_FileID>
964_CPDBAS_v5d

>  <STRUCTURE_Formula>
C11H10N2S

>  <STRUCTURE_MolecularWeight>
202.2734

>  <STRUCTURE_ChemicalType>
defined organic

>  <STRUCTURE_TestedForm_DefinedOrganic>
parent

>  <STRUCTURE_Shown>
tested chemical

>  <TestSubstance_ChemicalName>
1-(1-Naphthyl)-2-thiourea

>  <TestSubstance_CASRN>
86-88-4

>  <TestSubstance_Description>
single chemical compound

>  <STRUCTURE_ChemicalName_IUPAC>
1-naphthalen-1-ylthiourea

>  <STRUCTURE_SMILES>
NC(=S)NC1=C2C(=CC=C1)C=CC=C2

>  <STRUCTURE_Parent_SMILES>
NC(=S)NC1=C2C(=CC=C1)C=CC=C2

>  <STRUCTURE_InChI>
InChI=1/C11H10N2S/c12-11(14)13-10-7-3-5-8-4-1-2-6-9(8)10/h1-7H,(H3,12,13,14)/f/h13H,12H2

>  <STRUCTURE_InChIKey>
PIVQQUNOTICCSA-DXMPFREMCK

>  <StudyType>
Carcinogenicity

>  <Endpoint>
TD50; Tumor Target Sites

>  <Species>
mouse

>  <ActivityOutcome_CPDBAS_Mutagenicity>
active

>  <ActivityScore_CPDBAS_Mouse>
0

>  <TD50_Mouse_Note>
no positive results

>  <TargetSites_Mouse_Male>
no positive results

>  <TargetSites_Mouse_Female>
no positive results

>  <ActivityOutcome_CPDBAS_Mouse>
inactive

>  <ActivityOutcome_CPDBAS_SingleCellCall>
inactive

>  <ActivityOutcome_CPDBAS_MultiCellCall>
inactive

>  <ActivityOutcome_CPDBAS_MultiCellCall_Details>
multisex inactive

>  <ChemicalPage_URL>
http://potency.berkeley.edu/chempages/1-(1-NAPHTHYL)-2-THIOUREA.html

$$$$



 11 12  0  0  0  0  0  0  0  0999 V2000
    2.3209   -3.1982    0.0000 C   0  0  0  0  0  0  0  0  0  0  0  0
    2.3209   -1.8521    0.0000 C   0  0  0  0  0  0  0  0  0  0  0  0
    1.1604   -1.1790    0.0000 C   0  0  0  0  0  0  0  0  0  0  0  0
    1.1604   -3.8759    0.0000 C   0  0  0  0  0  0  0  0  0  0  0  0
    3.4813   -3.8759    0.0000 C   0  0  0  0  0  0  0  0  0  0  0  0
    3.4813   -1.1790    0.0000 C   0  0  0  0  0  0  0  0  0  0  0  0
    0.0000   -3.1982    0.0000 C   0  0  0  0  0  0  0  0  0  0  0  0
    4.6418   -3.1982    0.0000 C   0  0  0  0  0  0  0  0  0  0  0  0
    4.6418   -1.8521    0.0000 C   0  0  0  0  0  0  0  0  0  0  0  0
    0.0000   -1.8521    0.0000 C   0  0  0  0  0  0  0  0  0  0  0  0
    3.5370    0.0000    0.0000 N   0  0  0  0  0  0  0  0  0  0  0  0
  1  2  2  0  0  0  0
  1  4  1  0  0  0  0
  1  5  1  0  0  0  0
  2  3  1  0  0  0  0
  2  6  1  0  0  0  0
  3 10  2  0  0  0  0
  4  7  2  0  0  0  0
  5  8  2  0  0  0  0
  6  9  2  0  0  0  0
  6 11  1  0  0  0  0
  7 10  1  0  0  0  0
  8  9  1  0  0  0  0
M  END
>  <DSSTox_RID>
20920

>  <DSSTox_CID>
920

>  <DSSTox_Generic_SID>
20920

>  <DSSTox_FileID>
965_CPDBAS_v5d

>  <STRUCTURE_Formula>
C10H9N

>  <STRUCTURE_MolecularWeight>
143.1852

>  <STRUCTURE_ChemicalType>
defined organic

>  <STRUCTURE_TestedForm_DefinedOrganic>
parent

>  <STRUCTURE_Shown>
tested chemical

>  <TestSubstance_ChemicalName>
1-Naphthylamine

>  <TestSubstance_CASRN>
134-32-7

>  <TestSubstance_Description>
single chemical compound

>  <STRUCTURE_ChemicalName_IUPAC>
naphthalen-1-amine

>  <STRUCTURE_SMILES>
NC1=CC=CC2=C1C=CC=C2

>  <STRUCTURE_Parent_SMILES>
NC1=CC=CC2=C1C=CC=C2

>  <STRUCTURE_InChI>
InChI=1/C10H9N/c11-10-7-3-5-8-4-1-2-6-9(8)10/h1-7H,11H2

>  <STRUCTURE_InChIKey>
RUFPHBVGCFYCNW-UHFFFAOYAD

>  <StudyType>
Carcinogenicity

>  <Endpoint>
TD50; Tumor Target Sites

>  <Species>
mouse

>  <ActivityOutcome_CPDBAS_Mutagenicity>
active

>  <TD50_Mouse_mg>
67.3

>  <TD50_Mouse_mmol>
0.47

>  <ActivityScore_CPDBAS_Mouse>
32

>  <TargetSites_Mouse_Male>
liver

>  <ActivityOutcome_CPDBAS_Mouse>
active

>  <ActivityOutcome_CPDBAS_SingleCellCall>
active

>  <Note_CPDBAS>
Mouse added v3a; chemical added v3a

>  <ChemicalPage_URL>
http://potency.berkeley.edu/chempages/1-NAPHTHYLAMINE.html

$$$$



 11 12  0  0  0  0  0  0  0  0999 V2000
    3.4554   -1.9983    0.0000 C   0  0  0  0  0  0  0  0  0  0  0  0
    3.4554   -0.6680    0.0000 C   0  0  0  0  0  0  0  0  0  0  0  0
    2.3036    0.0000    0.0000 C   0  0  0  0  0  0  0  0  0  0  0  0
    1.1518   -0.6680    0.0000 C   0  0  0  0  0  0  0  0  0  0  0  0
    1.1518   -1.9983    0.0000 C   0  0  0  0  0  0  0  0  0  0  0  0
    2.3036   -2.6606    0.0000 C   0  0  0  0  0  0  0  0  0  0  0  0
    0.0000   -2.6606    0.0000 N   0  0  0  0  0  0  0  0  0  0  0  0
    4.6071    0.0000    0.0000 C   0  0  0  0  0  0  0  0  0  0  0  0
    5.7589   -0.6680    0.0000 C   0  0  0  0  0  0  0  0  0  0  0  0
    5.7589   -1.9983    0.0000 C   0  0  0  0  0  0  0  0  0  0  0  0
    4.6071   -2.6606    0.0000 C   0  0  0  0  0  0  0  0  0  0  0  0
  1  2  2  0  0  0  0
  1  6  1  0  0  0  0
  1 11  1  0  0  0  0
  2  3  1  0  0  0  0
  2  8  1  0  0  0  0
  3  4  2  0  0  0  0
  4  5  1  0  0  0  0
  5  6  2  0  0  0  0
  5  7  1  0  0  0  0
  8  9  2  0  0  0  0
  9 10  1  0  0  0  0
 10 11  2  0  0  0  0
M  END
>  <DSSTox_RID>
20921

>  <DSSTox_CID>
921

>  <DSSTox_Generic_SID>
20921

>  <DSSTox_FileID>
966_CPDBAS_v5d

>  <STRUCTURE_Formula>
C10H9N

>  <STRUCTURE_MolecularWeight>
143.1852

>  <STRUCTURE_ChemicalType>
defined organic

>  <STRUCTURE_TestedForm_DefinedOrganic>
parent

>  <STRUCTURE_Shown>
tested chemical

>  <TestSubstance_ChemicalName>
2-Naphthylamine

>  <TestSubstance_CASRN>
91-59-8

>  <TestSubstance_Description>
single chemical compound

>  <STRUCTURE_ChemicalName_IUPAC>
naphthalen-2-amine

>  <STRUCTURE_SMILES>
NC1=CC2=C(C=CC=C2)C=C1

>  <STRUCTURE_Parent_SMILES>
NC1=CC2=C(C=CC=C2)C=C1

>  <STRUCTURE_InChI>
InChI=1/C10H9N/c11-10-6-5-8-3-1-2-4-9(8)7-10/h1-7H,11H2

>  <STRUCTURE_InChIKey>
JBIJLHTVPXGSAM-UHFFFAOYAA

>  <StudyType>
Carcinogenicity

>  <Endpoint>
TD50; Tumor Target Sites

>  <Species>
rat; mouse; rhesus

>  <ActivityOutcome_CPDBAS_Mutagenicity>
active

>  <TD50_Rat_mg>
61.6

>  <TD50_Rat_mmol>
0.43

>  <ActivityScore_CPDBAS_Rat>
29

>  <TargetSites_Rat_Female>
urinary bladder

>  <TargetSites_Rat_BothSexes>
no positive results

>  <ActivityOutcome_CPDBAS_Rat>
active

>  <TD50_Mouse_mg>
39.4

>  <TD50_Mouse_mmol>
0.275

>  <ActivityScore_CPDBAS_Mouse>
35

>  <TD50_Mouse_Note>
TD50 is harmonic mean of more than one positive test

>  <TargetSites_Mouse_Male>
liver

>  <TargetSites_Mouse_Female>
liver

>  <ActivityOutcome_CPDBAS_Mouse>
active

>  <TD50_Rhesus_mg>
5.74

>  <TargetSites_Rhesus>
urinary bladder

>  <ActivityOutcome_CPDBAS_Dog_Primates>
active

>  <ActivityOutcome_CPDBAS_SingleCellCall>
active

>  <ActivityOutcome_CPDBAS_MultiCellCall>
active

>  <ActivityOutcome_CPDBAS_MultiCellCall_Details>
multisite active; multisex active; multispecies active

>  <Note_CPDBAS>
TD50_Mouse modified v3a

>  <ChemicalPage_URL>
http://potency.berkeley.edu/chempages/2-NAPHTHYLAMINE.html

$$$$



 15 16  0  0  0  0  0  0  0  0999 V2000
    2.3040   -1.9929    0.0000 C   0  0  0  0  0  0  0  0  0  0  0  0
    3.4560   -2.6611    0.0000 C   0  0  0  0  0  0  0  0  0  0  0  0
    4.6080   -1.9929    0.0000 C   0  0  0  0  0  0  0  0  0  0  0  0
    4.6080   -0.6624    0.0000 C   0  0  0  0  0  0  0  0  0  0  0  0
    3.4560    0.0000    0.0000 C   0  0  0  0  0  0  0  0  0  0  0  0
    2.3040   -0.6624    0.0000 C   0  0  0  0  0  0  0  0  0  0  0  0
    1.1520    0.0000    0.0000 N   0  0  0  0  0  0  0  0  0  0  0  0
    5.7600   -2.6611    0.0000 C   0  0  0  0  0  0  0  0  0  0  0  0
    5.7600   -3.9917    0.0000 C   0  0  0  0  0  0  0  0  0  0  0  0
    4.6080   -4.6541    0.0000 C   0  0  0  0  0  0  0  0  0  0  0  0
    3.4560   -3.9917    0.0000 C   0  0  0  0  0  0  0  0  0  0  0  0
    1.1520   -2.6611    0.0000 S   0  0  0  0  0  0  0  0  0  0  0  0
    1.8144   -3.8131    0.0000 O   0  0  0  0  0  0  0  0  0  0  0  0
    0.0000   -3.3235    0.0000 O   0  0  0  0  0  0  0  0  0  0  0  0
    0.4896   -1.5091    0.0000 O   0  0  0  0  0  0  0  0  0  0  0  0
  1  2  2  0  0  0  0
  1  6  1  0  0  0  0
  1 12  1  0  0  0  0
  2  3  1  0  0  0  0
  2 11  1  0  0  0  0
  3  4  2  0  0  0  0
  3  8  1  0  0  0  0
  4  5  1  0  0  0  0
  5  6  2  0  0  0  0
  6  7  1  0  0  0  0
  8  9  2  0  0  0  0
  9 10  1  0  0  0  0
 10 11  2  0  0  0  0
 12 13  2  0  0  0  0
 12 14  1  0  0  0  0
 12 15  2  0  0  0  0
M  END
>  <DSSTox_RID>
20922

>  <DSSTox_CID>
922

>  <DSSTox_Generic_SID>
20922

>  <DSSTox_FileID>
967_CPDBAS_v5d

>  <STRUCTURE_Formula>
C10H9NO3S

>  <STRUCTURE_MolecularWeight>
223.2484

>  <STRUCTURE_ChemicalType>
defined organic

>  <STRUCTURE_TestedForm_DefinedOrganic>
parent

>  <STRUCTURE_Shown>
tested chemical

>  <TestSubstance_ChemicalName>
2-Naphthylamino,1-sulfonic acid

>  <TestSubstance_CASRN>
81-16-3

>  <TestSubstance_Description>
single chemical compound

>  <STRUCTURE_ChemicalName_IUPAC>
2-aminonaphthalene-1-sulfonic acid

>  <STRUCTURE_SMILES>
C1(=C2C(=CC=C1N)C=CC=C2)S(=O)(O)=O

>  <STRUCTURE_Parent_SMILES>
C1(=C2C(=CC=C1N)C=CC=C2)S(=O)(O)=O

>  <STRUCTURE_InChI>
InChI=1/C10H9NO3S/c11-9-6-5-7-3-1-2-4-8(7)10(9)15(12,13)14/h1-6H,11H2,(H,12,13,14)/f/h12H

>  <STRUCTURE_InChIKey>
GWIAAIUASRVOIA-XWKXFZRBCT

>  <StudyType>
Carcinogenicity

>  <Endpoint>
TD50; Tumor Target Sites

>  <Species>
mouse

>  <ActivityScore_CPDBAS_Mouse>
0

>  <TD50_Mouse_Note>
no positive results

>  <TargetSites_Mouse_Male>
no positive results

>  <TargetSites_Mouse_Female>
no positive results

>  <ActivityOutcome_CPDBAS_Mouse>
inactive

>  <ActivityOutcome_CPDBAS_SingleCellCall>
inactive

>  <ActivityOutcome_CPDBAS_MultiCellCall>
inactive

>  <ActivityOutcome_CPDBAS_MultiCellCall_Details>
multisex inactive

>  <ChemicalPage_URL>
http://potency.berkeley.edu/chempages/2-NAPHTHYLAMINO,1-SULFONIC%20ACID.html

$$$$



 18 19  0  0  0  0  0  0  0  0999 V2000
    4.6082   -3.3276    0.0000 O   0  0  0  0  0  0  0  0  0  0  0  0
    4.6082   -2.0020    0.0000 C   0  0  0  0  0  0  0  0  0  0  0  0
    5.7625   -1.3347    0.0000 C   0  0  0  0  0  0  0  0  0  0  0  0
    6.9168   -2.0020    0.0000 N   0  0  0  0  0  0  0  0  0  0  0  0
    8.1252   -1.4609    0.0000 C   0  0  0  0  0  0  0  0  0  0  0  0
    8.4047   -0.1533    0.0000 O   0  0  0  0  0  0  0  0  0  0  0  0
    9.0179   -2.4439    0.0000 C   0  0  0  0  0  0  0  0  0  0  0  0
    8.3506   -3.5982    0.0000 C   0  0  0  0  0  0  0  0  0  0  0  0
    7.0520   -3.3186    0.0000 C   0  0  0  0  0  0  0  0  0  0  0  0
    3.4539   -1.3347    0.0000 N   0  0  0  0  0  0  0  0  0  0  0  0
    2.3086   -2.0020    0.0000 C   0  0  0  0  0  0  0  0  0  0  0  0
    2.3086   -3.3276    0.0000 C   0  0  0  0  0  0  0  0  0  0  0  0
    1.1543   -3.9949    0.0000 C   0  0  0  0  0  0  0  0  0  0  0  0
    0.0000   -3.3276    0.0000 C   0  0  0  0  0  0  0  0  0  0  0  0
    0.0000   -2.0020    0.0000 C   0  0  0  0  0  0  0  0  0  0  0  0
    1.1543   -1.3347    0.0000 C   0  0  0  0  0  0  0  0  0  0  0  0
    1.1543    0.0000    0.0000 C   0  0  0  0  0  0  0  0  0  0  0  0
    3.4539   -3.9949    0.0000 C   0  0  0  0  0  0  0  0  0  0  0  0
  1  2  2  0  0  0  0
  2  3  1  0  0  0  0
  2 10  1  0  0  0  0
  3  4  1  0  0  0  0
  4  5  1  0  0  0  0
  4  9  1  0  0  0  0
  5  6  2  0  0  0  0
  5  7  1  0  0  0  0
  7  8  1  0  0  0  0
  8  9  1  0  0  0  0
 10 11  1  0  0  0  0
 11 12  2  0  0  0  0
 11 16  1  0  0  0  0
 12 13  1  0  0  0  0
 12 18  1  0  0  0  0
 13 14  2  0  0  0  0
 14 15  1  0  0  0  0
 15 16  2  0  0  0  0
 16 17  1  0  0  0  0
M  END
>  <DSSTox_RID>
20923

>  <DSSTox_CID>
923

>  <DSSTox_Generic_SID>
20923

>  <DSSTox_FileID>
968_CPDBAS_v5d

>  <STRUCTURE_Formula>
C14H18N2O2

>  <STRUCTURE_MolecularWeight>
246.3084

>  <STRUCTURE_ChemicalType>
defined organic

>  <STRUCTURE_TestedForm_DefinedOrganic>
parent

>  <STRUCTURE_Shown>
tested chemical

>  <TestSubstance_ChemicalName>
Nefiracetam

>  <TestSubstance_CASRN>
77191-36-7

>  <TestSubstance_Description>
single chemical compound

>  <STRUCTURE_ChemicalName_IUPAC>
N-(2,6-dimethylphenyl)-2-(2-oxopyrrolidin-1-yl)acetamide

>  <STRUCTURE_SMILES>
O=C(CN1C(=O)CCC1)NC2=C(C=CC=C2C)C

>  <STRUCTURE_Parent_SMILES>
O=C(CN1C(=O)CCC1)NC2=C(C=CC=C2C)C

>  <STRUCTURE_InChI>
InChI=1/C14H18N2O2/c1-10-5-3-6-11(2)14(10)15-12(17)9-16-8-4-7-13(16)18/h3,5-6H,4,7-9H2,1-2H3,(H,15,17)/f/h15H

>  <STRUCTURE_InChIKey>
NGHTXZCKLWZPGK-YAQRNVERCD

>  <StudyType>
Carcinogenicity

>  <Endpoint>
TD50; Tumor Target Sites

>  <Species>
rat; mouse

>  <ActivityScore_CPDBAS_Rat>
0

>  <TD50_Rat_Note>
no positive results

>  <TargetSites_Rat_Male>
no positive results

>  <TargetSites_Rat_Female>
no positive results

>  <ActivityOutcome_CPDBAS_Rat>
inactive

>  <ActivityScore_CPDBAS_Mouse>
0

>  <TD50_Mouse_Note>
no positive results

>  <TargetSites_Mouse_Male>
no positive results

>  <TargetSites_Mouse_Female>
no positive results

>  <ActivityOutcome_CPDBAS_Mouse>
inactive

>  <ActivityOutcome_CPDBAS_SingleCellCall>
inactive

>  <ActivityOutcome_CPDBAS_MultiCellCall>
inactive

>  <ActivityOutcome_CPDBAS_MultiCellCall_Details>
multisex inactive; multispecies inactive

>  <ChemicalPage_URL>
http://potency.berkeley.edu/chempages/NEFIRACETAM.html

$$$$



  9  9  0  0  0  0  0  0  0  0999 V2000
    0.0000   -2.3037    0.0000 N   0  0  0  0  0  0  0  0  0  0  0  0
    0.6655   -1.1542    0.0000 C   0  0  0  0  0  0  0  0  0  0  0  0
    0.0000    0.0000    0.0000 O   0  0  0  0  0  0  0  0  0  0  0  0
    1.9965   -1.1542    0.0000 C   0  0  0  0  0  0  0  0  0  0  0  0
    2.6574    0.0000    0.0000 C   0  0  0  0  0  0  0  0  0  0  0  0
    3.9884    0.0000    0.0000 C   0  0  0  0  0  0  0  0  0  0  0  0
    4.6539   -1.1542    0.0000 C   0  0  0  0  0  0  0  0  0  0  0  0
    3.9884   -2.3037    0.0000 N   0  0  0  0  0  0  0  0  0  0  0  0
    2.6574   -2.3037    0.0000 C   0  0  0  0  0  0  0  0  0  0  0  0
  1  2  1  0  0  0  0
  2  3  2  0  0  0  0
  2  4  1  0  0  0  0
  4  5  2  0  0  0  0
  4  9  1  0  0  0  0
  5  6  1  0  0  0  0
  6  7  2  0  0  0  0
  7  8  1  0  0  0  0
  8  9  2  0  0  0  0
M  END
>  <DSSTox_RID>
20929

>  <DSSTox_CID>
929

>  <DSSTox_Generic_SID>
20929

>  <DSSTox_FileID>
974_CPDBAS_v5d

>  <STRUCTURE_Formula>
C6H6N2O

>  <STRUCTURE_MolecularWeight>
122.1246

>  <STRUCTURE_ChemicalType>
defined organic

>  <STRUCTURE_TestedForm_DefinedOrganic>
parent

>  <STRUCTURE_Shown>
tested chemical

>  <TestSubstance_ChemicalName>
Nicotinamide

>  <TestSubstance_CASRN>
98-92-0

>  <TestSubstance_Description>
single chemical compound

>  <STRUCTURE_ChemicalName_IUPAC>
nicotinamide

>  <STRUCTURE_SMILES>
NC(=O)C1=CC=CN=C1

>  <STRUCTURE_Parent_SMILES>
NC(=O)C1=CC=CN=C1

>  <STRUCTURE_InChI>
InChI=1/C6H6N2O/c7-6(9)5-2-1-3-8-4-5/h1-4H,(H2,7,9)/f/h7H2

>  <STRUCTURE_InChIKey>
DFPAKSUCGFBDDF-IAUQMDSZCD

>  <StudyType>
Carcinogenicity

>  <Endpoint>
TD50; Tumor Target Sites

>  <Species>
mouse

>  <ActivityScore_CPDBAS_Mouse>
0

>  <TD50_Mouse_Note>
no positive results

>  <TargetSites_Mouse_Male>
no positive results

>  <TargetSites_Mouse_Female>
no positive results

>  <ActivityOutcome_CPDBAS_Mouse>
inactive

>  <ActivityOutcome_CPDBAS_SingleCellCall>
inactive

>  <ActivityOutcome_CPDBAS_MultiCellCall>
inactive

>  <ActivityOutcome_CPDBAS_MultiCellCall_Details>
multisex inactive

>  <ChemicalPage_URL>
http://potency.berkeley.edu/chempages/NICOTINAMIDE.html

$$$$



 12 13  0  0  0  0  0  0  0  0999 V2000
    4.8433    2.1346    0.0000 N   0  0  0  0  0  0  0  0  0  0  0  0
    3.6953    1.3334    0.0000 C   0  0  2  0  0  0  0  0  0  0  0  0
    2.4157    1.9074    0.0000 C   0  0  0  0  0  0  0  0  0  0  0  0
    1.2138    4.0062    0.0000 N   0  0  0  0  0  0  0  0  0  0  0  0
    2.4157    3.2947    0.0000 C   0  0  0  0  0  0  0  0  0  0  0  0
    5.9794    1.3454    0.0000 C   0  0  0  0  0  0  0  0  0  0  0  0
    4.8433    3.5637    0.0000 C   0  0  0  0  0  0  0  0  0  0  0  0
    4.1497    0.0000    0.0000 C   0  0  0  0  0  0  0  0  0  0  0  0
    5.5668    0.0000    0.0000 C   0  0  0  0  0  0  0  0  0  0  0  0
    1.2138    1.2138    0.0000 C   0  0  0  0  0  0  0  0  0  0  0  0
    0.0000    3.3126    0.0000 C   0  0  0  0  0  0  0  0  0  0  0  0
    0.0000    1.9074    0.0000 C   0  0  0  0  0  0  0  0  0  0  0  0
  2  1  1  0  0  0  0
  6  1  1  0  0  0  0
  7  1  1  0  0  0  0
  2  3  1  1  0  0  0
  8  2  1  0  0  0  0
  5  3  2  0  0  0  0
 10  3  1  0  0  0  0
  5  4  1  0  0  0  0
 11  4  2  0  0  0  0
  9  6  1  0  0  0  0
  9  8  1  0  0  0  0
 12 10  2  0  0  0  0
 12 11  1  0  0  0  0
M  END
>  <DSSTox_RID>
20930

>  <DSSTox_CID>
930

>  <DSSTox_Generic_SID>
20930

>  <DSSTox_FileID>
975_CPDBAS_v5d

>  <STRUCTURE_Formula>
C10H14N2

>  <STRUCTURE_MolecularWeight>
162.2316

>  <STRUCTURE_ChemicalType>
defined organic

>  <STRUCTURE_TestedForm_DefinedOrganic>
parent

>  <STRUCTURE_Shown>
tested chemical

>  <TestSubstance_ChemicalName>
Nicotine

>  <TestSubstance_CASRN>
54-11-5

>  <TestSubstance_Description>
single chemical compound

>  <ChemicalNote>
stereochem

>  <STRUCTURE_ChemicalName_IUPAC>
3-[(2S)-1-methylpyrrolidin-2-yl]pyridine

>  <STRUCTURE_SMILES>
CN(CCC2)[C@@H]2[C@]1=CN=CC=C1

>  <STRUCTURE_Parent_SMILES>
CN(CCC2)[C@@H]2[C@]1=CN=CC=C1

>  <STRUCTURE_InChI>
InChI=1/C10H14N2/c1-12-7-3-5-10(12)9-4-2-6-11-8-9/h2,4,6,8,10H,3,5,7H2,1H3/t10-/m0/s1

>  <STRUCTURE_InChIKey>
SNICXCGAKADSCV-JTQLQIEIBP

>  <StudyType>
Carcinogenicity

>  <Endpoint>
TD50; Tumor Target Sites

>  <Species>
rat

>  <ActivityOutcome_CPDBAS_Mutagenicity>
inactive

>  <ActivityScore_CPDBAS_Rat>
0

>  <TD50_Rat_Note>
no positive results

>  <TargetSites_Rat_Male>
no positive results

>  <TargetSites_Rat_Female>
no positive results

>  <ActivityOutcome_CPDBAS_Rat>
inactive

>  <ActivityOutcome_CPDBAS_SingleCellCall>
inactive

>  <ActivityOutcome_CPDBAS_MultiCellCall>
inactive

>  <ActivityOutcome_CPDBAS_MultiCellCall_Details>
multisex inactive

>  <ChemicalPage_URL>
http://potency.berkeley.edu/chempages/NICOTINE.html

$$$$



  9  9  0  0  0  0  0  0  0  0999 V2000
    0.0000   -2.3037    0.0000 O   0  0  0  0  0  0  0  0  0  0  0  0
    0.6655   -1.1542    0.0000 C   0  0  0  0  0  0  0  0  0  0  0  0
    0.0000    0.0000    0.0000 O   0  0  0  0  0  0  0  0  0  0  0  0
    1.9965   -1.1542    0.0000 C   0  0  0  0  0  0  0  0  0  0  0  0
    2.6574    0.0000    0.0000 C   0  0  0  0  0  0  0  0  0  0  0  0
    3.9884    0.0000    0.0000 C   0  0  0  0  0  0  0  0  0  0  0  0
    4.6539   -1.1542    0.0000 C   0  0  0  0  0  0  0  0  0  0  0  0
    3.9884   -2.3037    0.0000 N   0  0  0  0  0  0  0  0  0  0  0  0
    2.6574   -2.3037    0.0000 C   0  0  0  0  0  0  0  0  0  0  0  0
  1  2  1  0  0  0  0
  2  3  2  0  0  0  0
  2  4  1  0  0  0  0
  4  5  2  0  0  0  0
  4  9  1  0  0  0  0
  5  6  1  0  0  0  0
  6  7  2  0  0  0  0
  7  8  1  0  0  0  0
  8  9  2  0  0  0  0
M  END
>  <DSSTox_RID>
20932

>  <DSSTox_CID>
932

>  <DSSTox_Generic_SID>
20932

>  <DSSTox_FileID>
977_CPDBAS_v5d

>  <STRUCTURE_Formula>
C6H5NO2

>  <STRUCTURE_MolecularWeight>
123.1094

>  <STRUCTURE_ChemicalType>
defined organic

>  <STRUCTURE_TestedForm_DefinedOrganic>
parent

>  <STRUCTURE_Shown>
tested chemical

>  <TestSubstance_ChemicalName>
Nicotinic acid

>  <TestSubstance_CASRN>
59-67-6

>  <TestSubstance_Description>
single chemical compound

>  <STRUCTURE_ChemicalName_IUPAC>
pyridine-3-carboxylic acid

>  <STRUCTURE_SMILES>
OC(=O)C1=CC=CN=C1

>  <STRUCTURE_Parent_SMILES>
OC(=O)C1=CC=CN=C1

>  <STRUCTURE_InChI>
InChI=1/C6H5NO2/c8-6(9)5-2-1-3-7-4-5/h1-4H,(H,8,9)/f/h8H

>  <STRUCTURE_InChIKey>
PVNIIMVLHYAWGP-FZOZFQFYCF

>  <StudyType>
Carcinogenicity

>  <Endpoint>
TD50; Tumor Target Sites

>  <Species>
mouse

>  <ActivityOutcome_CPDBAS_Mutagenicity>
inactive

>  <ActivityScore_CPDBAS_Mouse>
0

>  <TD50_Mouse_Note>
no positive results

>  <TargetSites_Mouse_Male>
no positive results

>  <TargetSites_Mouse_Female>
no positive results

>  <ActivityOutcome_CPDBAS_Mouse>
inactive

>  <ActivityOutcome_CPDBAS_SingleCellCall>
inactive

>  <ActivityOutcome_CPDBAS_MultiCellCall>
inactive

>  <ActivityOutcome_CPDBAS_MultiCellCall_Details>
multisex inactive

>  <ChemicalPage_URL>
http://potency.berkeley.edu/chempages/NICOTINIC%20ACID.html

$$$$



 10 10  0  0  0  0  0  0  0  0999 V2000
    4.6545   -3.4536    0.0000 O   0  0  0  0  0  0  0  0  0  0  0  0
    3.9889   -2.3040    0.0000 C   0  0  0  0  0  0  0  0  0  0  0  0
    2.6577   -2.3040    0.0000 C   0  0  0  0  0  0  0  0  0  0  0  0
    1.9968   -3.4536    0.0000 C   0  0  0  0  0  0  0  0  0  0  0  0
    0.6656   -3.4536    0.0000 C   0  0  0  0  0  0  0  0  0  0  0  0
    0.0000   -2.3040    0.0000 C   0  0  0  0  0  0  0  0  0  0  0  0
    0.6656   -1.1497    0.0000 N   0  0  0  0  0  0  0  0  0  0  0  0
    1.9968   -1.1497    0.0000 C   0  0  0  0  0  0  0  0  0  0  0  0
    4.6545   -1.1497    0.0000 N   0  0  0  0  0  0  0  0  0  0  0  0
    3.9889    0.0000    0.0000 N   0  0  0  0  0  0  0  0  0  0  0  0
  1  2  2  0  0  0  0
  2  3  1  0  0  0  0
  2  9  1  0  0  0  0
  3  4  2  0  0  0  0
  3  8  1  0  0  0  0
  4  5  1  0  0  0  0
  5  6  2  0  0  0  0
  6  7  1  0  0  0  0
  7  8  2  0  0  0  0
  9 10  1  0  0  0  0
M  END
>  <DSSTox_RID>
20933

>  <DSSTox_CID>
933

>  <DSSTox_Generic_SID>
20933

>  <DSSTox_FileID>
978_CPDBAS_v5d

>  <STRUCTURE_Formula>
C6H7N3O

>  <STRUCTURE_MolecularWeight>
137.1408

>  <STRUCTURE_ChemicalType>
defined organic

>  <STRUCTURE_TestedForm_DefinedOrganic>
parent

>  <STRUCTURE_Shown>
tested chemical

>  <TestSubstance_ChemicalName>
Nicotinic acid hydrazide

>  <TestSubstance_CASRN>
553-53-7

>  <TestSubstance_Description>
single chemical compound

>  <STRUCTURE_ChemicalName_IUPAC>
pyridine-3-carbohydrazide

>  <STRUCTURE_SMILES>
O=C(C1=CC=CN=C1)NN

>  <STRUCTURE_Parent_SMILES>
O=C(C1=CC=CN=C1)NN

>  <STRUCTURE_InChI>
InChI=1/C6H7N3O/c7-9-6(10)5-2-1-3-8-4-5/h1-4H,7H2,(H,9,10)/f/h9H

>  <STRUCTURE_InChIKey>
KFUSANSHCADHNJ-BGGKNDAXCY

>  <StudyType>
Carcinogenicity

>  <Endpoint>
TD50; Tumor Target Sites

>  <Species>
mouse

>  <TD50_Mouse_mg>
228

>  <TD50_Mouse_mmol>
1.66

>  <ActivityScore_CPDBAS_Mouse>
26

>  <TD50_Mouse_Note>
TD50 is harmonic mean of more than one positive test

>  <TargetSites_Mouse_Male>
lung

>  <TargetSites_Mouse_Female>
lung

>  <ActivityOutcome_CPDBAS_Mouse>
active

>  <ActivityOutcome_CPDBAS_SingleCellCall>
active

>  <ActivityOutcome_CPDBAS_MultiCellCall>
active

>  <ActivityOutcome_CPDBAS_MultiCellCall_Details>
multisex active

>  <ChemicalPage_URL>
http://potency.berkeley.edu/chempages/NICOTINIC%20ACID%20HYDRAZIDE.html

$$$$



 14 14  0  0  0  0  0  0  0  0999 V2000
    2.7683   -1.7254    0.0000 C   0  0  0  0  0  0  0  0  0  0  0  0
    4.0719   -2.0014    0.0000 N   0  0  0  0  0  0  0  0  0  0  0  0
    4.2099   -3.3280    0.0000 C   0  0  0  0  0  0  0  0  0  0  0  0
    2.9983   -3.8648    0.0000 S   0  0  0  0  0  0  0  0  0  0  0  0
    2.1088   -2.8756    0.0000 C   0  0  0  0  0  0  0  0  0  0  0  0
    0.7822   -3.0136    0.0000 N   0  3  0  0  0  0  0  0  0  0  0  0
    0.0000   -1.9401    0.0000 O   0  5  0  0  0  0  0  0  0  0  0  0
    0.2377   -4.2329    0.0000 O   0  0  0  0  0  0  0  0  0  0  0  0
    5.3602   -3.9875    0.0000 N   0  0  0  0  0  0  0  0  0  0  0  0
    6.5181   -3.3280    0.0000 C   0  0  0  0  0  0  0  0  0  0  0  0
    6.5181   -1.9938    0.0000 N   0  0  0  0  0  0  0  0  0  0  0  0
    7.6683   -1.3266    0.0000 C   0  0  0  0  0  0  0  0  0  0  0  0
    7.6683    0.0000    0.0000 C   0  0  0  0  0  0  0  0  0  0  0  0
    7.6683   -3.9875    0.0000 O   0  0  0  0  0  0  0  0  0  0  0  0
  1  2  1  0  0  0  0
  1  5  2  0  0  0  0
  2  3  2  0  0  0  0
  3  4  1  0  0  0  0
  3  9  1  0  0  0  0
  4  5  1  0  0  0  0
  5  6  1  0  0  0  0
  6  7  1  0  0  0  0
  6  8  2  0  0  0  0
  9 10  1  0  0  0  0
 10 11  1  0  0  0  0
 10 14  2  0  0  0  0
 11 12  1  0  0  0  0
 12 13  1  0  0  0  0
M  END
>  <DSSTox_RID>
20936

>  <DSSTox_CID>
936

>  <DSSTox_Generic_SID>
20936

>  <DSSTox_FileID>
981_CPDBAS_v5d

>  <STRUCTURE_Formula>
C6H8N4O3S

>  <STRUCTURE_MolecularWeight>
216.2177

>  <STRUCTURE_ChemicalType>
defined organic

>  <STRUCTURE_TestedForm_DefinedOrganic>
parent

>  <STRUCTURE_Shown>
tested chemical

>  <TestSubstance_ChemicalName>
Nithiazide

>  <TestSubstance_CASRN>
139-94-6

>  <TestSubstance_Description>
single chemical compound

>  <STRUCTURE_ChemicalName_IUPAC>
1-ethyl-3-(5-nitro-1,3-thiazol-2-yl)urea

>  <STRUCTURE_SMILES>
[O-][N+](C1=CN=C(NC(NCC)=O)S1)=O

>  <STRUCTURE_Parent_SMILES>
[O-][N+](C1=CN=C(NC(NCC)=O)S1)=O

>  <STRUCTURE_InChI>
InChI=1/C6H8N4O3S/c1-2-7-5(11)9-6-8-3-4(14-6)10(12)13/h3H,2H2,1H3,(H2,7,8,9,11)/f/h7,9H

>  <STRUCTURE_InChIKey>
FQSUTLQHSDLLAN-AUDIXQRPCR

>  <StudyType>
Carcinogenicity

>  <Endpoint>
TD50; Tumor Target Sites

>  <Species>
rat; mouse

>  <ActivityOutcome_CPDBAS_Mutagenicity>
active

>  <TD50_Rat_mg>
131

>  <TD50_Rat_mmol>
0.606

>  <ActivityScore_CPDBAS_Rat>
28

>  <TargetSites_Rat_Male>
no positive results

>  <TargetSites_Rat_Female>
mammary gland

>  <ActivityOutcome_CPDBAS_Rat>
active

>  <TD50_Mouse_mg>
758

>  <TD50_Mouse_mmol>
3.51

>  <ActivityScore_CPDBAS_Mouse>
22

>  <TargetSites_Mouse_Male>
liver

>  <TargetSites_Mouse_Female>
no positive results

>  <ActivityOutcome_CPDBAS_Mouse>
active

>  <ActivityOutcome_CPDBAS_SingleCellCall>
active

>  <ActivityOutcome_CPDBAS_MultiCellCall>
active

>  <ActivityOutcome_CPDBAS_MultiCellCall_Details>
multisite active; multisex active; multispecies active

>  <NTP_TechnicalReport>
TR 146

>  <ChemicalPage_URL>
http://potency.berkeley.edu/chempages/NITHIAZIDE.html

$$$$



 13 12  0  0  0  0  0  0  0  0999 V2000
    0.0000   -5.7554    0.0000 O   0  0  0  0  0  0  0  0  0  0  0  0
    0.6641   -4.6067    0.0000 C   0  0  0  0  0  0  0  0  0  0  0  0
    0.0000   -3.4520    0.0000 O   0  0  0  0  0  0  0  0  0  0  0  0
    1.9922   -4.6067    0.0000 C   0  0  0  0  0  0  0  0  0  0  0  0
    2.6563   -3.4520    0.0000 N   0  0  0  0  0  0  0  0  0  0  0  0
    1.9922   -2.3033    0.0000 C   0  0  0  0  0  0  0  0  0  0  0  0
    2.6563   -1.1487    0.0000 C   0  0  0  0  0  0  0  0  0  0  0  0
    3.9905   -1.1487    0.0000 O   0  0  0  0  0  0  0  0  0  0  0  0
    1.9922    0.0000    0.0000 O   0  0  0  0  0  0  0  0  0  0  0  0
    3.9905   -3.4520    0.0000 C   0  0  0  0  0  0  0  0  0  0  0  0
    4.6546   -4.6067    0.0000 C   0  0  0  0  0  0  0  0  0  0  0  0
    5.9827   -4.6067    0.0000 O   0  0  0  0  0  0  0  0  0  0  0  0
    3.9905   -5.7554    0.0000 O   0  0  0  0  0  0  0  0  0  0  0  0
  1  2  1  0  0  0  0
  2  3  2  0  0  0  0
  2  4  1  0  0  0  0
  4  5  1  0  0  0  0
  5  6  1  0  0  0  0
  5 10  1  0  0  0  0
  6  7  1  0  0  0  0
  7  8  2  0  0  0  0
  7  9  1  0  0  0  0
 10 11  1  0  0  0  0
 11 12  2  0  0  0  0
 11 13  1  0  0  0  0
M  END
>  <DSSTox_RID>
20939

>  <DSSTox_CID>
939

>  <DSSTox_Generic_SID>
20939

>  <DSSTox_FileID>
984_CPDBAS_v5d

>  <STRUCTURE_Formula>
C6H9NO6

>  <STRUCTURE_MolecularWeight>
191.1388

>  <STRUCTURE_ChemicalType>
defined organic

>  <STRUCTURE_TestedForm_DefinedOrganic>
parent

>  <STRUCTURE_Shown>
tested chemical

>  <TestSubstance_ChemicalName>
Nitrilotriacetic acid

>  <TestSubstance_CASRN>
139-13-9

>  <TestSubstance_Description>
single chemical compound

>  <STRUCTURE_ChemicalName_IUPAC>
2,2',2''-nitrilotriacetic acid

>  <STRUCTURE_SMILES>
OC(=O)CN(CC(=O)O)CC(=O)O

>  <STRUCTURE_Parent_SMILES>
OC(=O)CN(CC(=O)O)CC(=O)O

>  <STRUCTURE_InChI>
InChI=1/C6H9NO6/c8-4(9)1-7(2-5(10)11)3-6(12)13/h1-3H2,(H,8,9)(H,10,11)(H,12,13)/f/h8,10,12H

>  <STRUCTURE_InChIKey>
MGFYIUFZLHCRTH-SOMQBULBCI

>  <StudyType>
Carcinogenicity

>  <Endpoint>
TD50; Tumor Target Sites

>  <Species>
rat; mouse

>  <ActivityOutcome_CPDBAS_Mutagenicity>
inactive

>  <TD50_Rat_mg>
1770

>  <TD50_Rat_mmol>
9.26

>  <ActivityScore_CPDBAS_Rat>
16

>  <TD50_Rat_Note>
TD50 is harmonic mean of more than one positive test

>  <TargetSites_Rat_Male>
kidney

>  <TargetSites_Rat_Female>
kidney; urinary bladder

>  <ActivityOutcome_CPDBAS_Rat>
active

>  <TD50_Mouse_mg>
2660

>  <TD50_Mouse_mmol>
13.9

>  <ActivityScore_CPDBAS_Mouse>
15

>  <TD50_Mouse_Note>
TD50 is harmonic mean of more than one positive test

>  <TargetSites_Mouse_Male>
kidney

>  <TargetSites_Mouse_Female>
kidney

>  <ActivityOutcome_CPDBAS_Mouse>
active

>  <ActivityOutcome_CPDBAS_SingleCellCall>
active

>  <ActivityOutcome_CPDBAS_MultiCellCall>
active

>  <ActivityOutcome_CPDBAS_MultiCellCall_Details>
multisite active; multisex active; multispecies active

>  <Note_CPDBAS>
TD50_Rat modified v2a

>  <NTP_TechnicalReport>
TR 6

>  <ChemicalPage_URL>
http://potency.berkeley.edu/chempages/NITRILOTRIACETIC%20ACID.html

$$$$



 16 16  0  0  0  0  0  0  0  0999 V2000
    5.3188   -4.6108    0.0000 C   0  0  0  0  0  0  0  0  0  0  0  0
    3.9961   -4.6108    0.0000 C   0  0  0  0  0  0  0  0  0  0  0  0
    3.3254   -3.4651    0.0000 C   0  0  0  0  0  0  0  0  0  0  0  0
    3.9961   -2.3101    0.0000 C   0  0  0  0  0  0  0  0  0  0  0  0
    1.9934   -3.4651    0.0000 N   0  0  0  0  0  0  0  0  0  0  0  0
    1.3320   -4.6108    0.0000 C   0  0  0  0  0  0  0  0  0  0  0  0
    0.0000   -4.6108    0.0000 O   0  0  0  0  0  0  0  0  0  0  0  0
    1.9934   -5.7659    0.0000 C   0  0  0  0  0  0  0  0  0  0  0  0
    5.9894   -3.4651    0.0000 C   0  0  0  0  0  0  0  0  0  0  0  0
    7.3215   -3.4651    0.0000 O   0  0  0  0  0  0  0  0  0  0  0  0
    7.9828   -4.6108    0.0000 C   0  0  0  0  0  0  0  0  0  0  0  0
    9.3148   -4.6108    0.0000 C   0  0  0  0  0  0  0  0  0  0  0  0
    5.3188   -2.3101    0.0000 C   0  0  0  0  0  0  0  0  0  0  0  0
    5.9894   -1.1550    0.0000 N   0  3  0  0  0  0  0  0  0  0  0  0
    5.3188    0.0000    0.0000 O   0  5  0  0  0  0  0  0  0  0  0  0
    7.3215   -1.1550    0.0000 O   0  0  0  0  0  0  0  0  0  0  0  0
  1  2  2  0  0  0  0
  1  9  1  0  0  0  0
  2  3  1  0  0  0  0
  3  4  2  0  0  0  0
  3  5  1  0  0  0  0
  4 13  1  0  0  0  0
  5  6  1  0  0  0  0
  6  7  2  0  0  0  0
  6  8  1  0  0  0  0
  9 10  1  0  0  0  0
  9 13  2  0  0  0  0
 10 11  1  0  0  0  0
 11 12  1  0  0  0  0
 13 14  1  0  0  0  0
 14 15  1  0  0  0  0
 14 16  2  0  0  0  0
M  END
>  <DSSTox_RID>
20942

>  <DSSTox_CID>
942

>  <DSSTox_Generic_SID>
20942

>  <DSSTox_FileID>
987_CPDBAS_v5d

>  <STRUCTURE_Formula>
C10H12N2O4

>  <STRUCTURE_MolecularWeight>
224.2133

>  <STRUCTURE_ChemicalType>
defined organic

>  <STRUCTURE_TestedForm_DefinedOrganic>
parent

>  <STRUCTURE_Shown>
tested chemical

>  <TestSubstance_ChemicalName>
3-Nitro-p-acetophenetide

>  <TestSubstance_CASRN>
1777-84-0

>  <TestSubstance_Description>
single chemical compound

>  <STRUCTURE_ChemicalName_IUPAC>
N-[4-(ethyloxy)-3-nitrophenyl]acetamide

>  <STRUCTURE_SMILES>
C1=CC(=CC(=C1OCC)[N+]([O-])=O)NC(=O)C

>  <STRUCTURE_Parent_SMILES>
C1=CC(=CC(=C1OCC)[N+]([O-])=O)NC(=O)C

>  <STRUCTURE_InChI>
InChI=1/C10H12N2O4/c1-3-16-10-5-4-8(11-7(2)13)6-9(10)12(14)15/h4-6H,3H2,1-2H3,(H,11,13)/f/h11H

>  <STRUCTURE_InChIKey>
UOIPFPSGIAWJAQ-WXRBYKJCCT

>  <StudyType>
Carcinogenicity

>  <Endpoint>
TD50; Tumor Target Sites

>  <Species>
rat; mouse

>  <ActivityOutcome_CPDBAS_Mutagenicity>
active

>  <ActivityScore_CPDBAS_Rat>
0

>  <TD50_Rat_Note>
no positive results

>  <TargetSites_Rat_Male>
no positive results

>  <TargetSites_Rat_Female>
no positive results

>  <ActivityOutcome_CPDBAS_Rat>
inactive

>  <TD50_Mouse_mg>
2270

>  <TD50_Mouse_mmol>
10.1

>  <ActivityScore_CPDBAS_Mouse>
17

>  <TargetSites_Mouse_Male>
liver

>  <TargetSites_Mouse_Female>
no positive results

>  <ActivityOutcome_CPDBAS_Mouse>
active

>  <ActivityOutcome_CPDBAS_SingleCellCall>
active

>  <NTP_TechnicalReport>
TR 133

>  <ChemicalPage_URL>
http://potency.berkeley.edu/chempages/3-NITRO-p-ACETOPHENETIDE.html

$$$$



 12 12  0  0  0  0  0  0  0  0999 V2000
    0.0000   -3.4588    0.0000 O   0  0  0  0  0  0  0  0  0  0  0  0
    0.6652   -2.3081    0.0000 N   0  3  0  0  0  0  0  0  0  0  0  0
    1.9955   -2.3081    0.0000 C   0  0  0  0  0  0  0  0  0  0  0  0
    2.6606   -1.1574    0.0000 C   0  0  0  0  0  0  0  0  0  0  0  0
    3.9909   -1.1574    0.0000 C   0  0  0  0  0  0  0  0  0  0  0  0
    4.6561   -2.3081    0.0000 C   0  0  0  0  0  0  0  0  0  0  0  0
    3.9909   -3.4588    0.0000 C   0  0  0  0  0  0  0  0  0  0  0  0
    2.6606   -3.4588    0.0000 C   0  0  0  0  0  0  0  0  0  0  0  0
    5.9864   -2.3081    0.0000 O   0  0  0  0  0  0  0  0  0  0  0  0
    6.6515   -3.4588    0.0000 C   0  0  0  0  0  0  0  0  0  0  0  0
    4.6561    0.0000    0.0000 N   0  0  0  0  0  0  0  0  0  0  0  0
    0.0000   -1.1574    0.0000 O   0  5  0  0  0  0  0  0  0  0  0  0
  1  2  2  0  0  0  0
  2  3  1  0  0  0  0
  2 12  1  0  0  0  0
  3  4  2  0  0  0  0
  3  8  1  0  0  0  0
  4  5  1  0  0  0  0
  5  6  2  0  0  0  0
  5 11  1  0  0  0  0
  6  7  1  0  0  0  0
  6  9  1  0  0  0  0
  7  8  2  0  0  0  0
  9 10  1  0  0  0  0
M  END
>  <DSSTox_RID>
20943

>  <DSSTox_CID>
943

>  <DSSTox_Generic_SID>
20943

>  <DSSTox_FileID>
988_CPDBAS_v5d

>  <STRUCTURE_Formula>
C7H8N2O3

>  <STRUCTURE_MolecularWeight>
168.15

>  <STRUCTURE_ChemicalType>
defined organic

>  <STRUCTURE_TestedForm_DefinedOrganic>
parent

>  <STRUCTURE_Shown>
tested chemical

>  <TestSubstance_ChemicalName>
5-Nitro-o-anisidine

>  <TestSubstance_CASRN>
99-59-2

>  <TestSubstance_Description>
single chemical compound

>  <STRUCTURE_ChemicalName_IUPAC>
2-methoxy-5-nitroaniline

>  <STRUCTURE_SMILES>
O=[N+](C1=CC(=C(C=C1)OC)N)[O-]

>  <STRUCTURE_Parent_SMILES>
O=[N+](C1=CC(=C(C=C1)OC)N)[O-]

>  <STRUCTURE_InChI>
InChI=1/C7H8N2O3/c1-12-7-3-2-5(9(10)11)4-6(7)8/h2-4H,8H2,1H3

>  <STRUCTURE_InChIKey>
NIPDVSLAMPAWTP-UHFFFAOYAL

>  <StudyType>
Carcinogenicity

>  <Endpoint>
TD50; Tumor Target Sites

>  <Species>
rat; mouse

>  <ActivityOutcome_CPDBAS_Mutagenicity>
active

>  <TD50_Rat_mg>
53.9

>  <TD50_Rat_mmol>
0.321

>  <ActivityScore_CPDBAS_Rat>
31

>  <TD50_Rat_Note>
TD50 is harmonic mean of more than one positive test

>  <TargetSites_Rat_Male>
ear Zymbals gland; skin

>  <TargetSites_Rat_Female>
clitoral gland; skin

>  <ActivityOutcome_CPDBAS_Rat>
active

>  <TD50_Mouse_mg>
3720

>  <TD50_Mouse_mmol>
22.1

>  <ActivityScore_CPDBAS_Mouse>
13

>  <TargetSites_Mouse_Male>
no positive results

>  <TargetSites_Mouse_Female>
liver

>  <ActivityOutcome_CPDBAS_Mouse>
active

>  <ActivityOutcome_CPDBAS_SingleCellCall>
active

>  <ActivityOutcome_CPDBAS_MultiCellCall>
active

>  <ActivityOutcome_CPDBAS_MultiCellCall_Details>
multisite active; multisex active; multispecies active

>  <NTP_TechnicalReport>
TR 127

>  <ChemicalPage_URL>
http://potency.berkeley.edu/chempages/5-NITRO-o-ANISIDINE.html

$$$$



 14 14  0  0  0  0  0  0  0  0999 V2000
    0.2393   -2.5025    0.0000 O   0  0  0  0  0  0  0  0  0  0  0  0
    0.7777   -1.2861    0.0000 N   0  3  0  0  0  0  0  0  0  0  0  0
    2.1037   -1.1466    0.0000 C   0  0  0  0  0  0  0  0  0  0  0  0
    2.7717    0.0000    0.0000 C   0  0  0  0  0  0  0  0  0  0  0  0
    4.0678   -0.2692    0.0000 C   0  0  0  0  0  0  0  0  0  0  0  0
    4.2074   -1.5952    0.0000 C   0  0  0  0  0  0  0  0  0  0  0  0
    2.9910   -2.1336    0.0000 O   0  0  0  0  0  0  0  0  0  0  0  0
    5.3639   -2.2632    0.0000 C   0  0  0  0  0  0  0  0  0  0  0  0
    6.5105   -1.5952    0.0000 N   0  0  0  0  0  0  0  0  0  0  0  0
    7.6670   -2.2632    0.0000 N   0  0  0  0  0  0  0  0  0  0  0  0
    8.8136   -1.5952    0.0000 C   0  0  0  0  0  0  0  0  0  0  0  0
    8.8136   -0.2692    0.0000 O   0  0  0  0  0  0  0  0  0  0  0  0
    9.9701   -2.2632    0.0000 N   0  0  0  0  0  0  0  0  0  0  0  0
    0.0000   -0.2094    0.0000 O   0  5  0  0  0  0  0  0  0  0  0  0
  1  2  2  0  0  0  0
  2  3  1  0  0  0  0
  2 14  1  0  0  0  0
  3  4  2  0  0  0  0
  3  7  1  0  0  0  0
  4  5  1  0  0  0  0
  5  6  2  0  0  0  0
  6  7  1  0  0  0  0
  6  8  1  0  0  0  0
  8  9  2  0  0  0  0
  9 10  1  0  0  0  0
 10 11  1  0  0  0  0
 11 12  2  0  0  0  0
 11 13  1  0  0  0  0
M  END
>  <DSSTox_RID>
20944

>  <DSSTox_CID>
944

>  <DSSTox_Generic_SID>
20944

>  <DSSTox_FileID>
989_CPDBAS_v5d

>  <STRUCTURE_Formula>
C6H6N4O4

>  <STRUCTURE_MolecularWeight>
198.1362

>  <STRUCTURE_ChemicalType>
defined organic

>  <STRUCTURE_TestedForm_DefinedOrganic>
parent

>  <STRUCTURE_Shown>
tested chemical

>  <TestSubstance_ChemicalName>
5-Nitro-2-furaldehyde semicarbazone

>  <TestSubstance_CASRN>
59-87-0

>  <TestSubstance_Description>
single chemical compound

>  <STRUCTURE_ChemicalName_IUPAC>
5-nitrofuran-2-carbaldehyde semicarbazone

>  <STRUCTURE_SMILES>
O=[N+](C1=CC=C(O1)/C=N/NC(=O)N)[O-]

>  <STRUCTURE_Parent_SMILES>
O=[N+](C1=CC=C(O1)/C=N/NC(=O)N)[O-]

>  <STRUCTURE_InChI>
InChI=1/C6H6N4O4/c7-6(11)9-8-3-4-1-2-5(14-4)10(12)13/h1-3H,(H3,7,9,11)/b8-3+/f/h9H,7H2

>  <STRUCTURE_InChIKey>
IAIWVQXQOWNYOU-BAKCHHEWDY

>  <StudyType>
Carcinogenicity

>  <Endpoint>
TD50; Tumor Target Sites

>  <Species>
rat; mouse

>  <ActivityOutcome_CPDBAS_Mutagenicity>
active

>  <TD50_Rat_mg>
6.98

>  <TD50_Rat_mmol>
0.0352

>  <ActivityScore_CPDBAS_Rat>
41

>  <TD50_Rat_Note>
TD50 is harmonic mean of more than one positive test; harmonic mean of TD50 includes a value for upper 99% confidence limit from study with 100% tumor incidence but no lifetable

>  <TargetSites_Rat_Male>
no positive results

>  <TargetSites_Rat_Female>
mammary gland

>  <ActivityOutcome_CPDBAS_Rat>
active

>  <TD50_Mouse_mg>
30.8

>  <TD50_Mouse_mmol>
0.155

>  <ActivityScore_CPDBAS_Mouse>
37

>  <TargetSites_Mouse_Male>
no positive results

>  <TargetSites_Mouse_Female>
ovary

>  <ActivityOutcome_CPDBAS_Mouse>
active

>  <ActivityOutcome_CPDBAS_SingleCellCall>
active

>  <ActivityOutcome_CPDBAS_MultiCellCall>
active

>  <ActivityOutcome_CPDBAS_MultiCellCall_Details>
multisite active; multispecies active

>  <NTP_TechnicalReport>
TR 337

>  <ChemicalPage_URL>
http://potency.berkeley.edu/chempages/5-NITRO-2-FURALDEHYDE%20SEMICARBAZONE.html

$$$$



 12 12  0  0  0  0  0  0  0  0999 V2000
    3.5551   -1.6933    0.0000 O   0  0  0  0  0  0  0  0  0  0  0  0
    4.3367   -2.7736    0.0000 C   0  0  0  0  0  0  0  0  0  0  0  0
    3.5551   -3.8463    0.0000 C   0  0  0  0  0  0  0  0  0  0  0  0
    2.2909   -3.4326    0.0000 C   0  0  0  0  0  0  0  0  0  0  0  0
    2.2909   -2.1070    0.0000 C   0  0  0  0  0  0  0  0  0  0  0  0
    1.2183   -1.3255    0.0000 N   0  3  0  0  0  0  0  0  0  0  0  0
    1.3562    0.0000    0.0000 O   0  0  0  0  0  0  0  0  0  0  0  0
    0.0000   -1.8619    0.0000 O   0  5  0  0  0  0  0  0  0  0  0  0
    5.6698   -2.7736    0.0000 C   0  0  0  0  0  0  0  0  0  0  0  0
    6.3288   -1.6167    0.0000 N   0  0  0  0  0  0  0  0  0  0  0  0
    7.6620   -1.6167    0.0000 O   0  0  0  0  0  0  0  0  0  0  0  0
    6.3288   -3.9229    0.0000 N   0  0  0  0  0  0  0  0  0  0  0  0
  1  2  1  0  0  0  0
  1  5  1  0  0  0  0
  2  3  2  0  0  0  0
  2  9  1  0  0  0  0
  3  4  1  0  0  0  0
  4  5  2  0  0  0  0
  5  6  1  0  0  0  0
  6  7  2  0  0  0  0
  6  8  1  0  0  0  0
  9 10  2  0  0  0  0
  9 12  1  0  0  0  0
 10 11  1  0  0  0  0
M  END
>  <DSSTox_RID>
20945

>  <DSSTox_CID>
945

>  <DSSTox_Generic_SID>
20945

>  <DSSTox_FileID>
990_CPDBAS_v5d

>  <STRUCTURE_Formula>
C5H5N3O4

>  <STRUCTURE_MolecularWeight>
171.1122

>  <STRUCTURE_ChemicalType>
defined organic

>  <STRUCTURE_TestedForm_DefinedOrganic>
parent

>  <STRUCTURE_Shown>
tested chemical

>  <TestSubstance_ChemicalName>
5-Nitro-2-furamidoxime

>  <TestSubstance_CASRN>
772-43-0

>  <TestSubstance_Description>
single chemical compound

>  <ChemicalNote>
tautomers

>  <STRUCTURE_ChemicalName_IUPAC>
N'-hydroxy-5-nitrofuran-2-carboximidamide

>  <STRUCTURE_SMILES>
O1C(=CC=C1[N+](=O)[O-])/C(=N/O)N

>  <STRUCTURE_Parent_SMILES>
O1C(=CC=C1[N+](=O)[O-])/C(=N/O)N

>  <STRUCTURE_InChI>
InChI=1/C5H5N3O4/c6-5(7-9)3-1-2-4(12-3)8(10)11/h1-2,9H,(H2,6,7)/f/h6H2/b7-5-

>  <STRUCTURE_InChIKey>
WKIPQMJEBCEACS-HJHBTGHJDC

>  <StudyType>
Carcinogenicity

>  <Endpoint>
TD50; Tumor Target Sites

>  <Species>
rat

>  <ActivityOutcome_CPDBAS_Mutagenicity>
active

>  <ActivityScore_CPDBAS_Rat>
0

>  <TD50_Rat_Note>
no positive results

>  <TargetSites_Rat_Female>
no positive results

>  <ActivityOutcome_CPDBAS_Rat>
inactive

>  <ActivityOutcome_CPDBAS_SingleCellCall>
inactive

>  <ChemicalPage_URL>
http://potency.berkeley.edu/chempages/5-NITRO-2-FURAMIDOXIME.html

$$$$



 17 17  0  0  0  0  0  0  0  0999 V2000
    3.0574   -1.9913    0.0000 C   0  0  0  0  0  0  0  0  0  0  0  0
    4.2028   -1.3305    0.0000 C   0  0  0  0  0  0  0  0  0  0  0  0
    4.2028    0.0000    0.0000 O   0  0  0  0  0  0  0  0  0  0  0  0
    5.3571   -1.9913    0.0000 O   0  0  0  0  0  0  0  0  0  0  0  0
    5.3571   -3.3217    0.0000 C   0  0  0  0  0  0  0  0  0  0  0  0
    4.2028   -3.9914    0.0000 C   0  0  0  0  0  0  0  0  0  0  0  0
    4.0707   -5.3130    0.0000 C   0  0  0  0  0  0  0  0  0  0  0  0
    2.7666   -5.5862    0.0000 C   0  0  0  0  0  0  0  0  0  0  0  0
    2.1058   -4.4319    0.0000 C   0  0  0  0  0  0  0  0  0  0  0  0
    2.9957   -3.4451    0.0000 O   0  0  0  0  0  0  0  0  0  0  0  0
    0.7842   -4.2998    0.0000 N   0  3  0  0  0  0  0  0  0  0  0  0
    0.0000   -5.3747    0.0000 O   0  0  0  0  0  0  0  0  0  0  0  0
    0.2379   -3.0838    0.0000 O   0  5  0  0  0  0  0  0  0  0  0  0
    6.5113   -3.9914    0.0000 O   0  0  0  0  0  0  0  0  0  0  0  0
    7.6567   -3.3217    0.0000 C   0  0  0  0  0  0  0  0  0  0  0  0
    7.6567   -1.9913    0.0000 O   0  0  0  0  0  0  0  0  0  0  0  0
    8.8110   -3.9914    0.0000 C   0  0  0  0  0  0  0  0  0  0  0  0
  1  2  1  0  0  0  0
  2  3  2  0  0  0  0
  2  4  1  0  0  0  0
  4  5  1  0  0  0  0
  5  6  1  0  0  0  0
  5 14  1  0  0  0  0
  6  7  2  0  0  0  0
  6 10  1  0  0  0  0
  7  8  1  0  0  0  0
  8  9  2  0  0  0  0
  9 10  1  0  0  0  0
  9 11  1  0  0  0  0
 11 12  2  0  0  0  0
 11 13  1  0  0  0  0
 14 15  1  0  0  0  0
 15 16  2  0  0  0  0
 15 17  1  0  0  0  0
M  END
>  <DSSTox_RID>
20946

>  <DSSTox_CID>
946

>  <DSSTox_Generic_SID>
20946

>  <DSSTox_FileID>
991_CPDBAS_v5d

>  <STRUCTURE_Formula>
C9H9NO7

>  <STRUCTURE_MolecularWeight>
243.1726

>  <STRUCTURE_ChemicalType>
defined organic

>  <STRUCTURE_TestedForm_DefinedOrganic>
parent

>  <STRUCTURE_Shown>
tested chemical

>  <TestSubstance_ChemicalName>
5-Nitro-2-furanmethanediol diacetate

>  <TestSubstance_CASRN>
92-55-7

>  <TestSubstance_Description>
single chemical compound

>  <STRUCTURE_ChemicalName_IUPAC>
(5-nitrofuran-2-yl)methanediyl diacetate

>  <STRUCTURE_SMILES>
CC(=O)OC(C1=CC=C(O1)[N+](=O)[O-])OC(=O)C

>  <STRUCTURE_Parent_SMILES>
CC(=O)OC(C1=CC=C(O1)[N+](=O)[O-])OC(=O)C

>  <STRUCTURE_InChI>
InChI=1/C9H9NO7/c1-5(11)15-9(16-6(2)12)7-3-4-8(17-7)10(13)14/h3-4,9H,1-2H3

>  <STRUCTURE_InChIKey>
HSXKWKJCZNRMJO-UHFFFAOYAS

>  <StudyType>
Carcinogenicity

>  <Endpoint>
TD50; Tumor Target Sites

>  <Species>
rat

>  <ActivityOutcome_CPDBAS_Mutagenicity>
active

>  <ActivityScore_CPDBAS_Rat>
0

>  <TD50_Rat_Note>
no positive results

>  <TargetSites_Rat_Female>
no positive results

>  <ActivityOutcome_CPDBAS_Rat>
inactive

>  <ActivityOutcome_CPDBAS_SingleCellCall>
inactive

>  <ChemicalPage_URL>
http://potency.berkeley.edu/chempages/5-NITRO-2-FURANMETHANEDIOL%20DIACETATE.html

$$$$



 17 19  0  0  0  0  0  0  0  0999 V2000
    5.9812   -0.9869    0.0000 C   0  0  0  0  0  0  0  0  0  0  0  0
    6.3932   -2.2569    0.0000 N   0  0  0  0  0  0  0  0  0  0  0  0
    7.6889   -2.5315    0.0000 C   0  0  0  0  0  0  0  0  0  0  0  0
    8.5814   -1.5447    0.0000 C   0  0  0  0  0  0  0  0  0  0  0  0
    8.1695   -0.2746    0.0000 C   0  0  0  0  0  0  0  0  0  0  0  0
    6.8737    0.0000    0.0000 C   0  0  0  0  0  0  0  0  0  0  0  0
    7.8348   -3.8531    0.0000 N   0  0  0  0  0  0  0  0  0  0  0  0
    6.6163   -4.3937    0.0000 C   0  0  0  0  0  0  0  0  0  0  0  0
    5.7238   -3.4068    0.0000 C   0  0  0  0  0  0  0  0  0  0  0  0
    4.4023   -3.5441    0.0000 C   0  0  0  0  0  0  0  0  0  0  0  0
    3.7415   -4.6940    0.0000 C   0  0  0  0  0  0  0  0  0  0  0  0
    2.4371   -4.4194    0.0000 C   0  0  0  0  0  0  0  0  0  0  0  0
    2.2998   -3.0979    0.0000 C   0  0  0  0  0  0  0  0  0  0  0  0
    3.5184   -2.5573    0.0000 O   0  0  0  0  0  0  0  0  0  0  0  0
    1.1499   -2.4285    0.0000 N   0  3  0  0  0  0  0  0  0  0  0  0
    0.0000   -3.0979    0.0000 O   0  5  0  0  0  0  0  0  0  0  0  0
    1.1499   -1.0984    0.0000 O   0  0  0  0  0  0  0  0  0  0  0  0
  1  2  1  0  0  0  0
  1  6  2  0  0  0  0
  2  3  1  0  0  0  0
  2  9  1  0  0  0  0
  3  4  1  0  0  0  0
  3  7  2  0  0  0  0
  4  5  2  0  0  0  0
  5  6  1  0  0  0  0
  7  8  1  0  0  0  0
  8  9  2  0  0  0  0
  9 10  1  0  0  0  0
 10 11  2  0  0  0  0
 10 14  1  0  0  0  0
 11 12  1  0  0  0  0
 12 13  2  0  0  0  0
 13 14  1  0  0  0  0
 13 15  1  0  0  0  0
 15 16  1  0  0  0  0
 15 17  2  0  0  0  0
M  END
>  <DSSTox_RID>
20947

>  <DSSTox_CID>
947

>  <DSSTox_Generic_SID>
20947

>  <DSSTox_FileID>
992_CPDBAS_v5d

>  <STRUCTURE_Formula>
C11H7N3O3

>  <STRUCTURE_MolecularWeight>
229.1946

>  <STRUCTURE_ChemicalType>
defined organic

>  <STRUCTURE_TestedForm_DefinedOrganic>
parent

>  <STRUCTURE_Shown>
tested chemical

>  <TestSubstance_ChemicalName>
3-(5-Nitro-2-furyl)-imidazo(1,2-alpha) pyridine

>  <TestSubstance_CASRN>
75198-31-1

>  <TestSubstance_Description>
single chemical compound

>  <STRUCTURE_ChemicalName_IUPAC>
3-(5-nitrofuran-2-yl)imidazo[1,2-a]pyridine

>  <STRUCTURE_SMILES>
[O-][N+](C3=CC=C(O3)C1=CN=C2N1C=CC=C2)=O

>  <STRUCTURE_Parent_SMILES>
[O-][N+](C3=CC=C(O3)C1=CN=C2N1C=CC=C2)=O

>  <STRUCTURE_InChI>
InChI=1/C11H7N3O3/c15-14(16)11-5-4-9(17-11)8-7-12-10-3-1-2-6-13(8)10/h1-7H

>  <STRUCTURE_InChIKey>
ZDFULRQJRIJLRF-UHFFFAOYAA

>  <StudyType>
Carcinogenicity

>  <Endpoint>
TD50; Tumor Target Sites

>  <Species>
rat; mouse

>  <TD50_Rat_mg>
13.6

>  <TD50_Rat_mmol>
0.0593

>  <ActivityScore_CPDBAS_Rat>
38

>  <TD50_Rat_Note>
TD50 is harmonic mean of more than one positive test

>  <TargetSites_Rat_Male>
esophagus; kidney; stomach

>  <TargetSites_Rat_Female>
esophagus; kidney; mammary gland; stomach

>  <ActivityOutcome_CPDBAS_Rat>
active

>  <TD50_Mouse_mg>
27

>  <TD50_Mouse_mmol>
0.118

>  <ActivityScore_CPDBAS_Mouse>
39

>  <TD50_Mouse_Note>
TD50 is harmonic mean of more than one positive test

>  <TargetSites_Mouse_Male>
esophagus; stomach

>  <TargetSites_Mouse_Female>
esophagus; stomach

>  <ActivityOutcome_CPDBAS_Mouse>
active

>  <ActivityOutcome_CPDBAS_SingleCellCall>
active

>  <ActivityOutcome_CPDBAS_MultiCellCall>
active

>  <ActivityOutcome_CPDBAS_MultiCellCall_Details>
multisite active; multisex active; multispecies active

>  <ChemicalPage_URL>
http://potency.berkeley.edu/chempages/3-(5-NITRO-2-FURYL)-IMIDAZO(1,2-alpha)PYRIDINE.html

$$$$



 14 15  0  0  0  0  0  0  0  0999 V2000
    4.5865   -2.4461    0.0000 C   0  0  0  0  0  0  0  0  0  0  0  0
    3.2555   -2.3022    0.0000 C   0  0  0  0  0  0  0  0  0  0  0  0
    2.3652   -3.2915    0.0000 O   0  0  0  0  0  0  0  0  0  0  0  0
    1.1511   -2.7519    0.0000 C   0  0  0  0  0  0  0  0  0  0  0  0
    1.2950   -1.4299    0.0000 N   0  0  0  0  0  0  0  0  0  0  0  0
    2.5900   -1.1511    0.0000 N   0  0  0  0  0  0  0  0  0  0  0  0
    0.0000   -3.4174    0.0000 O   0  0  0  0  0  0  0  0  0  0  0  0
    5.4768   -1.4569    0.0000 O   0  0  0  0  0  0  0  0  0  0  0  0
    6.6908   -1.9965    0.0000 C   0  0  0  0  0  0  0  0  0  0  0  0
    7.8419   -1.3310    0.0000 N   0  3  0  0  0  0  0  0  0  0  0  0
    7.8419    0.0000    0.0000 O   0  0  0  0  0  0  0  0  0  0  0  0
    8.9931   -1.9965    0.0000 O   0  5  0  0  0  0  0  0  0  0  0  0
    6.5469   -3.3184    0.0000 C   0  0  0  0  0  0  0  0  0  0  0  0
    5.2430   -3.5972    0.0000 C   0  0  0  0  0  0  0  0  0  0  0  0
  1  2  1  0  0  0  0
  1  8  1  0  0  0  0
  1 14  2  0  0  0  0
  2  3  1  0  0  0  0
  2  6  2  0  0  0  0
  3  4  1  0  0  0  0
  4  5  2  0  0  0  0
  4  7  1  0  0  0  0
  5  6  1  0  0  0  0
  8  9  1  0  0  0  0
  9 10  1  0  0  0  0
  9 13  2  0  0  0  0
 10 11  2  0  0  0  0
 10 12  1  0  0  0  0
 13 14  1  0  0  0  0
M  END
>  <DSSTox_RID>
20948

>  <DSSTox_CID>
948

>  <DSSTox_Generic_SID>
20948

>  <DSSTox_FileID>
993_CPDBAS_v5d

>  <STRUCTURE_Formula>
C6H3N3O5

>  <STRUCTURE_MolecularWeight>
197.1068

>  <STRUCTURE_ChemicalType>
defined organic

>  <STRUCTURE_TestedForm_DefinedOrganic>
parent

>  <STRUCTURE_Shown>
tested chemical

>  <TestSubstance_ChemicalName>
5-(5-Nitro-2-furyl)-1,3,4-oxadiazole-2-ol

>  <TestSubstance_CASRN>
2122-86-3

>  <TestSubstance_Description>
single chemical compound

>  <STRUCTURE_ChemicalName_IUPAC>
5-(5-nitrofuran-2-yl)-1,3,4-oxadiazol-2-ol

>  <STRUCTURE_SMILES>
OC2=NN=C(O2)C1=CC=C([N+]([O-])=O)O1

>  <STRUCTURE_Parent_SMILES>
OC2=NN=C(O2)C1=CC=C([N+]([O-])=O)O1

>  <STRUCTURE_InChI>
InChI=1/C6H3N3O5/c10-6-8-7-5(14-6)3-1-2-4(13-3)9(11)12/h1-2H,(H,8,10)/f/h10H

>  <STRUCTURE_InChIKey>
OWDANLZJJOCPBK-KZFATGLACZ

>  <StudyType>
Carcinogenicity

>  <Endpoint>
TD50; Tumor Target Sites

>  <Species>
rat

>  <TD50_Rat_mg>
8.61

>  <TD50_Rat_mmol>
0.0437

>  <ActivityScore_CPDBAS_Rat>
40

>  <TargetSites_Rat_Female>
all tumor bearing animals

>  <ActivityOutcome_CPDBAS_Rat>
active

>  <ActivityOutcome_CPDBAS_SingleCellCall>
active

>  <ChemicalPage_URL>
http://potency.berkeley.edu/chempages/5-(5-NITRO-2-FURYL)-1,3,4-OXADIAZOLE-2-OL.html

$$$$



 18 19  0  0  0  0  0  0  0  0999 V2000
    0.0000   -3.5790    0.0000 O   0  0  0  0  0  0  0  0  0  0  0  0
    0.9374   -2.6416    0.0000 C   0  0  0  0  0  0  0  0  0  0  0  0
    0.5965   -1.3513    0.0000 C   0  0  0  0  0  0  0  0  0  0  0  0
    2.2399   -2.9094    0.0000 N   0  0  0  0  0  0  0  0  0  0  0  0
    3.1286   -1.9234    0.0000 C   0  0  0  0  0  0  0  0  0  0  0  0
    4.4311   -2.2034    0.0000 C   0  0  0  0  0  0  0  0  0  0  0  0
    5.4172   -1.3147    0.0000 N   0  0  0  0  0  0  0  0  0  0  0  0
    6.5737   -1.9721    0.0000 C   0  0  0  0  0  0  0  0  0  0  0  0
    6.2937   -3.2747    0.0000 N   0  0  0  0  0  0  0  0  0  0  0  0
    4.9789   -3.4207    0.0000 O   0  0  0  0  0  0  0  0  0  0  0  0
    7.7910   -1.4365    0.0000 C   0  0  0  0  0  0  0  0  0  0  0  0
    8.0710   -0.1339    0.0000 C   0  0  0  0  0  0  0  0  0  0  0  0
    9.3857    0.0000    0.0000 C   0  0  0  0  0  0  0  0  0  0  0  0
    9.9335   -1.2173    0.0000 C   0  0  0  0  0  0  0  0  0  0  0  0
    8.9475   -2.1060    0.0000 O   0  0  0  0  0  0  0  0  0  0  0  0
   11.2361   -1.4852    0.0000 N   0  3  0  0  0  0  0  0  0  0  0  0
   12.1734   -0.5478    0.0000 O   0  5  0  0  0  0  0  0  0  0  0  0
   11.5769   -2.7755    0.0000 O   0  0  0  0  0  0  0  0  0  0  0  0
  1  2  2  0  0  0  0
  2  3  1  0  0  0  0
  2  4  1  0  0  0  0
  4  5  1  0  0  0  0
  5  6  1  0  0  0  0
  6  7  2  0  0  0  0
  6 10  1  0  0  0  0
  7  8  1  0  0  0  0
  8  9  2  0  0  0  0
  8 11  1  0  0  0  0
  9 10  1  0  0  0  0
 11 12  2  0  0  0  0
 11 15  1  0  0  0  0
 12 13  1  0  0  0  0
 13 14  2  0  0  0  0
 14 15  1  0  0  0  0
 14 16  1  0  0  0  0
 16 17  1  0  0  0  0
 16 18  2  0  0  0  0
M  END
>  <DSSTox_RID>
20949

>  <DSSTox_CID>
949

>  <DSSTox_Generic_SID>
20949

>  <DSSTox_FileID>
994_CPDBAS_v5d

>  <STRUCTURE_Formula>
C9H8N4O5

>  <STRUCTURE_MolecularWeight>
252.186

>  <STRUCTURE_ChemicalType>
defined organic

>  <STRUCTURE_TestedForm_DefinedOrganic>
parent

>  <STRUCTURE_Shown>
tested chemical

>  <TestSubstance_ChemicalName>
N-{[3-(5-Nitro-2-furyl)-1,2,4-oxadiazole-5-yl]-methyl}acetamide

>  <TestSubstance_CASRN>
36133-88-7

>  <TestSubstance_Description>
single chemical compound

>  <STRUCTURE_ChemicalName_IUPAC>
N-{[3-(5-nitrofuran-2-yl)-1,2,4-oxadiazol-5-yl]methyl}acetamide

>  <STRUCTURE_SMILES>
O=C(C)NCC1=NC(=NO1)C2=CC=C(O2)[N+]([O-])=O

>  <STRUCTURE_Parent_SMILES>
O=C(C)NCC1=NC(=NO1)C2=CC=C(O2)[N+]([O-])=O

>  <STRUCTURE_InChI>
InChI=1/C9H8N4O5/c1-5(14)10-4-7-11-9(12-18-7)6-2-3-8(17-6)13(15)16/h2-3H,4H2,1H3,(H,10,14)/f/h10H

>  <STRUCTURE_InChIKey>
KOURBVJNDMXAMA-KZFATGLACQ

>  <StudyType>
Carcinogenicity

>  <Endpoint>
TD50; Tumor Target Sites

>  <Species>
rat

>  <ActivityOutcome_CPDBAS_Mutagenicity>
active

>  <TD50_Rat_mg>
59.6

>  <TD50_Rat_mmol>
0.236

>  <ActivityScore_CPDBAS_Rat>
32

>  <TD50_Rat_Note>
no positive results are statistically significant

>  <TargetSites_Rat_Female>
kidney; lung

>  <ActivityOutcome_CPDBAS_Rat>
active

>  <ActivityOutcome_CPDBAS_SingleCellCall>
active

>  <ActivityOutcome_CPDBAS_MultiCellCall>
active

>  <ActivityOutcome_CPDBAS_MultiCellCall_Details>
multisite active

>  <ChemicalPage_URL>
http://potency.berkeley.edu/chempages/N-{[3-(5-NITRO-2-FURYL)-1,2,4-OXADIAZOLE-5-YL]-MET.html

$$$$



 17 18  0  0  0  0  0  0  0  0999 V2000
   11.1214   -2.0686    0.0000 C   0  0  0  0  0  0  0  0  0  0  0  0
    9.9647   -2.7359    0.0000 C   0  0  0  0  0  0  0  0  0  0  0  0
    9.9647   -4.0704    0.0000 O   0  0  0  0  0  0  0  0  0  0  0  0
    8.8192   -2.0686    0.0000 N   0  0  0  0  0  0  0  0  0  0  0  0
    7.6626   -2.7359    0.0000 C   0  0  0  0  0  0  0  0  0  0  0  0
    7.5292   -4.0593    0.0000 N   0  0  0  0  0  0  0  0  0  0  0  0
    6.2280   -4.3373    0.0000 N   0  0  0  0  0  0  0  0  0  0  0  0
    5.5607   -3.1807    0.0000 C   0  0  0  0  0  0  0  0  0  0  0  0
    6.4504   -2.2020    0.0000 S   0  0  0  0  0  0  0  0  0  0  0  0
    4.2372   -3.0473    0.0000 C   0  0  0  0  0  0  0  0  0  0  0  0
    3.3475   -4.0371    0.0000 C   0  0  0  0  0  0  0  0  0  0  0  0
    2.1353   -3.4921    0.0000 C   0  0  0  0  0  0  0  0  0  0  0  0
    2.2688   -2.1687    0.0000 C   0  0  0  0  0  0  0  0  0  0  0  0
    3.5700   -1.8906    0.0000 O   0  0  0  0  0  0  0  0  0  0  0  0
    1.2901   -1.2790    0.0000 N   0  3  0  0  0  0  0  0  0  0  0  0
    0.0000   -1.6237    0.0000 O   0  5  0  0  0  0  0  0  0  0  0  0
    1.6237    0.0000    0.0000 O   0  0  0  0  0  0  0  0  0  0  0  0
  1  2  1  0  0  0  0
  2  3  2  0  0  0  0
  2  4  1  0  0  0  0
  4  5  1  0  0  0  0
  5  6  2  0  0  0  0
  5  9  1  0  0  0  0
  6  7  1  0  0  0  0
  7  8  2  0  0  0  0
  8  9  1  0  0  0  0
  8 10  1  0  0  0  0
 10 11  2  0  0  0  0
 10 14  1  0  0  0  0
 11 12  1  0  0  0  0
 12 13  2  0  0  0  0
 13 14  1  0  0  0  0
 13 15  1  0  0  0  0
 15 16  1  0  0  0  0
 15 17  2  0  0  0  0
M  END
>  <DSSTox_RID>
20950

>  <DSSTox_CID>
950

>  <DSSTox_Generic_SID>
20950

>  <DSSTox_FileID>
995_CPDBAS_v5d

>  <STRUCTURE_Formula>
C8H6N4O4S

>  <STRUCTURE_MolecularWeight>
254.2198

>  <STRUCTURE_ChemicalType>
defined organic

>  <STRUCTURE_TestedForm_DefinedOrganic>
parent

>  <STRUCTURE_Shown>
tested chemical

>  <TestSubstance_ChemicalName>
N-[5-(5-Nitro-2-furyl)-1,3,4-thiadiazol-2-yl]acetamide

>  <TestSubstance_CASRN>
2578-75-8

>  <TestSubstance_Description>
single chemical compound

>  <STRUCTURE_ChemicalName_IUPAC>
N-[5-(5-nitrofuran-2-yl)-1,3,4-thiadiazol-2-yl]acetamide

>  <STRUCTURE_SMILES>
CC(=O)NC1=NN=C(S1)C2=CC=C(O2)[N+]([O-])=O

>  <STRUCTURE_Parent_SMILES>
CC(=O)NC1=NN=C(S1)C2=CC=C(O2)[N+]([O-])=O

>  <STRUCTURE_InChI>
InChI=1/C8H6N4O4S/c1-4(13)9-8-11-10-7(17-8)5-2-3-6(16-5)12(14)15/h2-3H,1H3,(H,9,11,13)/f/h9H

>  <STRUCTURE_InChIKey>
KGVQFUIYBAPYSK-BGGKNDAXCH

>  <StudyType>
Carcinogenicity

>  <Endpoint>
TD50; Tumor Target Sites

>  <Species>
rat; mouse

>  <ActivityOutcome_CPDBAS_Mutagenicity>
active

>  <TD50_Rat_mg>
8.84

>  <TD50_Rat_mmol>
0.0348

>  <ActivityScore_CPDBAS_Rat>
41

>  <TargetSites_Rat_Female>
hematopoietic system; kidney; lung; small intestine; stomach; vascular system

>  <ActivityOutcome_CPDBAS_Rat>
active

>  <TD50_Mouse_mg>
6.74

>  <TD50_Mouse_mmol>
0.0265

>  <ActivityScore_CPDBAS_Mouse>
46

>  <TargetSites_Mouse_Female>
stomach

>  <ActivityOutcome_CPDBAS_Mouse>
active

>  <ActivityOutcome_CPDBAS_SingleCellCall>
active

>  <ActivityOutcome_CPDBAS_MultiCellCall>
active

>  <ActivityOutcome_CPDBAS_MultiCellCall_Details>
multisite active; multispecies active

>  <ChemicalPage_URL>
http://potency.berkeley.edu/chempages/N-[5-(5-NITRO-2-FURYL)-1,3,4-THIADIAZOL-2-YL]ACETA.html

$$$$



 13 14  0  0  0  0  0  0  0  0999 V2000
    5.5934   -1.4390    0.0000 C   0  0  0  0  0  0  0  0  0  0  0  0
    5.8719   -0.1393    0.0000 N   0  0  0  0  0  0  0  0  0  0  0  0
    7.1948    0.0000    0.0000 C   0  0  0  0  0  0  0  0  0  0  0  0
    7.7363   -1.2146    0.0000 S   0  0  0  0  0  0  0  0  0  0  0  0
    6.7461   -2.1043    0.0000 C   0  0  0  0  0  0  0  0  0  0  0  0
    4.3788   -1.9805    0.0000 C   0  0  0  0  0  0  0  0  0  0  0  0
    4.1080   -3.2802    0.0000 C   0  0  0  0  0  0  0  0  0  0  0  0
    2.7851   -3.4195    0.0000 C   0  0  0  0  0  0  0  0  0  0  0  0
    2.2435   -2.2049    0.0000 C   0  0  0  0  0  0  0  0  0  0  0  0
    3.2261   -1.3152    0.0000 O   0  0  0  0  0  0  0  0  0  0  0  0
    0.9438   -1.9263    0.0000 N   0  3  0  0  0  0  0  0  0  0  0  0
    0.0000   -2.8702    0.0000 O   0  5  0  0  0  0  0  0  0  0  0  0
    0.5957   -0.6421    0.0000 O   0  0  0  0  0  0  0  0  0  0  0  0
  1  2  1  0  0  0  0
  1  5  2  0  0  0  0
  1  6  1  0  0  0  0
  2  3  2  0  0  0  0
  3  4  1  0  0  0  0
  4  5  1  0  0  0  0
  6  7  2  0  0  0  0
  6 10  1  0  0  0  0
  7  8  1  0  0  0  0
  8  9  2  0  0  0  0
  9 10  1  0  0  0  0
  9 11  1  0  0  0  0
 11 12  1  0  0  0  0
 11 13  2  0  0  0  0
M  END
>  <DSSTox_RID>
20951

>  <DSSTox_CID>
951

>  <DSSTox_Generic_SID>
20951

>  <DSSTox_FileID>
996_CPDBAS_v5d

>  <STRUCTURE_Formula>
C7H4N2O3S

>  <STRUCTURE_MolecularWeight>
196.1802

>  <STRUCTURE_ChemicalType>
defined organic

>  <STRUCTURE_TestedForm_DefinedOrganic>
parent

>  <STRUCTURE_Shown>
tested chemical

>  <TestSubstance_ChemicalName>
4-(5-Nitro-2-furyl)thiazole

>  <TestSubstance_CASRN>
53757-28-1

>  <TestSubstance_Description>
single chemical compound

>  <STRUCTURE_ChemicalName_IUPAC>
4-(5-nitrofuran-2-yl)-1,3-thiazole

>  <STRUCTURE_SMILES>
[O-][N+](C2=CC=C(O2)C1=CSC=N1)=O

>  <STRUCTURE_Parent_SMILES>
[O-][N+](C2=CC=C(O2)C1=CSC=N1)=O

>  <STRUCTURE_InChI>
InChI=1/C7H4N2O3S/c10-9(11)7-2-1-6(12-7)5-3-13-4-8-5/h1-4H

>  <STRUCTURE_InChIKey>
NOMAVCLLBXUQRD-UHFFFAOYAB

>  <StudyType>
Carcinogenicity

>  <Endpoint>
TD50; Tumor Target Sites

>  <Species>
rat

>  <ActivityOutcome_CPDBAS_Mutagenicity>
active

>  <TD50_Rat_mg>
7.68

>  <TD50_Rat_mmol>
0.0391

>  <ActivityScore_CPDBAS_Rat>
40

>  <TargetSites_Rat_Female>
mammary gland; stomach

>  <ActivityOutcome_CPDBAS_Rat>
active

>  <ActivityOutcome_CPDBAS_SingleCellCall>
active

>  <ActivityOutcome_CPDBAS_MultiCellCall>
active

>  <ActivityOutcome_CPDBAS_MultiCellCall_Details>
multisite active

>  <ChemicalPage_URL>
http://potency.berkeley.edu/chempages/4-(5-NITRO-2-FURYL)THIAZOLE.html

$$$$



 17 18  0  0  0  0  0  0  0  0999 V2000
    1.2652   -1.2985    0.0000 N   0  3  0  0  0  0  0  0  0  0  0  0
    0.0000   -1.7091    0.0000 O   0  5  0  0  0  0  0  0  0  0  0  0
    1.5426    0.0000    0.0000 O   0  0  0  0  0  0  0  0  0  0  0  0
    2.2529   -2.1863    0.0000 C   0  0  0  0  0  0  0  0  0  0  0  0
    3.5514   -1.9089    0.0000 O   0  0  0  0  0  0  0  0  0  0  0  0
    4.2173   -3.0631    0.0000 C   0  0  0  0  0  0  0  0  0  0  0  0
    3.3294   -4.0508    0.0000 C   0  0  0  0  0  0  0  0  0  0  0  0
    2.1086   -3.5070    0.0000 C   0  0  0  0  0  0  0  0  0  0  0  0
    5.5380   -3.1963    0.0000 C   0  0  0  0  0  0  0  0  0  0  0  0
    6.4258   -2.2085    0.0000 N   0  0  0  0  0  0  0  0  0  0  0  0
    7.6466   -2.7523    0.0000 C   0  0  0  0  0  0  0  0  0  0  0  0
    7.5023   -4.0730    0.0000 S   0  0  0  0  0  0  0  0  0  0  0  0
    6.2039   -4.3505    0.0000 C   0  0  0  0  0  0  0  0  0  0  0  0
    8.8008   -2.0865    0.0000 N   0  0  0  0  0  0  0  0  0  0  0  0
    9.9439   -2.7523    0.0000 C   0  0  0  0  0  0  0  0  0  0  0  0
    9.9439   -4.0841    0.0000 O   0  0  0  0  0  0  0  0  0  0  0  0
   11.0981   -2.0865    0.0000 C   0  0  0  0  0  0  0  0  0  0  0  0
  1  2  1  0  0  0  0
  1  3  2  0  0  0  0
  1  4  1  0  0  0  0
  4  5  1  0  0  0  0
  4  8  2  0  0  0  0
  5  6  1  0  0  0  0
  6  7  2  0  0  0  0
  6  9  1  0  0  0  0
  7  8  1  0  0  0  0
  9 10  1  0  0  0  0
  9 13  2  0  0  0  0
 10 11  2  0  0  0  0
 11 12  1  0  0  0  0
 11 14  1  0  0  0  0
 12 13  1  0  0  0  0
 14 15  1  0  0  0  0
 15 16  2  0  0  0  0
 15 17  1  0  0  0  0
M  END
>  <DSSTox_RID>
20952

>  <DSSTox_CID>
952

>  <DSSTox_Generic_SID>
20952

>  <DSSTox_FileID>
997_CPDBAS_v5d

>  <STRUCTURE_Formula>
C9H7N3O4S

>  <STRUCTURE_MolecularWeight>
253.232

>  <STRUCTURE_ChemicalType>
defined organic

>  <STRUCTURE_TestedForm_DefinedOrganic>
parent

>  <STRUCTURE_Shown>
tested chemical

>  <TestSubstance_ChemicalName>
N-[4-(5-Nitro-2-furyl)-2-thiazolyl]acetamide

>  <TestSubstance_CASRN>
531-82-8

>  <TestSubstance_Description>
single chemical compound

>  <STRUCTURE_ChemicalName_IUPAC>
N-[4-(5-nitrofuran-2-yl)-1,3-thiazol-2-yl]acetamide

>  <STRUCTURE_SMILES>
[O-][N+](C1=CC=C(C2=CSC(NC(C)=O)=N2)O1)=O

>  <STRUCTURE_Parent_SMILES>
[O-][N+](C1=CC=C(C2=CSC(NC(C)=O)=N2)O1)=O

>  <STRUCTURE_InChI>
InChI=1/C9H7N3O4S/c1-5(13)10-9-11-6(4-17-9)7-2-3-8(16-7)12(14)15/h2-4H,1H3,(H,10,11,13)/f/h10H

>  <STRUCTURE_InChIKey>
GYRMPDLIHUXUIG-KZFATGLACZ

>  <StudyType>
Carcinogenicity

>  <Endpoint>
TD50; Tumor Target Sites

>  <Species>
rat; hamster

>  <ActivityOutcome_CPDBAS_Mutagenicity>
active

>  <TD50_Rat_mg>
17.8

>  <TD50_Rat_mmol>
0.0703

>  <ActivityScore_CPDBAS_Rat>
38

>  <TD50_Rat_Note>
TD50 is harmonic mean of more than one positive test

>  <TargetSites_Rat_Female>
mammary gland

>  <ActivityOutcome_CPDBAS_Rat>
active

>  <TD50_Hamster_mg>
8.91

>  <TD50_Hamster_mmol>
0.0352

>  <ActivityScore_CPDBAS_Hamster>
61

>  <TargetSites_Hamster_Male>
stomach; urinary bladder

>  <ActivityOutcome_CPDBAS_Hamster>
active

>  <ActivityOutcome_CPDBAS_SingleCellCall>
active

>  <ActivityOutcome_CPDBAS_MultiCellCall>
active

>  <ActivityOutcome_CPDBAS_MultiCellCall_Details>
multisite active; multisex active; multispecies active

>  <ChemicalPage_URL>
http://potency.berkeley.edu/chempages/N-[4-(5-NITRO-2-FURYL)-2-THIAZOLYL]ACETAMIDE.html

$$$$



 16 17  0  0  0  0  0  0  0  0999 V2000
   10.9589   -1.9945    0.0000 O   0  5  0  0  0  0  0  0  0  0  0  0
    9.8082   -1.3260    0.0000 N   0  3  0  0  0  0  0  0  0  0  0  0
    9.8082    0.0000    0.0000 O   0  0  0  0  0  0  0  0  0  0  0  0
    8.6575   -1.9945    0.0000 C   0  0  0  0  0  0  0  0  0  0  0  0
    8.5151   -3.3205    0.0000 C   0  0  0  0  0  0  0  0  0  0  0  0
    7.2110   -3.5945    0.0000 C   0  0  0  0  0  0  0  0  0  0  0  0
    6.5534   -2.4438    0.0000 C   0  0  0  0  0  0  0  0  0  0  0  0
    7.4411   -1.4575    0.0000 O   0  0  0  0  0  0  0  0  0  0  0  0
    5.2274   -2.3014    0.0000 C   0  0  0  0  0  0  0  0  0  0  0  0
    4.3397   -3.2877    0.0000 C   0  0  0  0  0  0  0  0  0  0  0  0
    3.1233   -2.7507    0.0000 S   0  0  0  0  0  0  0  0  0  0  0  0
    3.2658   -1.4247    0.0000 C   0  0  0  0  0  0  0  0  0  0  0  0
    4.5589   -1.1507    0.0000 N   0  0  0  0  0  0  0  0  0  0  0  0
    2.2795   -0.5370    0.0000 N   0  0  0  0  0  0  0  0  0  0  0  0
    1.0301   -1.0192    0.0000 C   0  0  0  0  0  0  0  0  0  0  0  0
    0.0000   -0.1753    0.0000 O   0  0  0  0  0  0  0  0  0  0  0  0
  1  2  1  0  0  0  0
  2  3  2  0  0  0  0
  2  4  1  0  0  0  0
  4  5  2  0  0  0  0
  4  8  1  0  0  0  0
  5  6  1  0  0  0  0
  6  7  2  0  0  0  0
  7  8  1  0  0  0  0
  7  9  1  0  0  0  0
  9 10  2  0  0  0  0
  9 13  1  0  0  0  0
 10 11  1  0  0  0  0
 11 12  1  0  0  0  0
 12 13  2  0  0  0  0
 12 14  1  0  0  0  0
 14 15  1  0  0  0  0
 15 16  2  0  0  0  0
M  END
>  <DSSTox_RID>
20953

>  <DSSTox_CID>
953

>  <DSSTox_Generic_SID>
20953

>  <DSSTox_FileID>
998_CPDBAS_v5d

>  <STRUCTURE_Formula>
C8H5N3O4S

>  <STRUCTURE_MolecularWeight>
239.208

>  <STRUCTURE_ChemicalType>
defined organic

>  <STRUCTURE_TestedForm_DefinedOrganic>
parent

>  <STRUCTURE_Shown>
tested chemical

>  <TestSubstance_ChemicalName>
N-[4-(5-Nitro-2-furyl)-2-thiazolyl]formamide

>  <TestSubstance_CASRN>
24554-26-5

>  <TestSubstance_Description>
single chemical compound

>  <STRUCTURE_ChemicalName_IUPAC>
N-[4-(5-nitrofuran-2-yl)-1,3-thiazol-2-yl]formamide

>  <STRUCTURE_SMILES>
[O-][N+](=O)C1=CC=C(O1)C2=CSC(=N2)NC=O

>  <STRUCTURE_Parent_SMILES>
[O-][N+](=O)C1=CC=C(O1)C2=CSC(=N2)NC=O

>  <STRUCTURE_InChI>
InChI=1/C8H5N3O4S/c12-4-9-8-10-5(3-16-8)6-1-2-7(15-6)11(13)14/h1-4H,(H,9,10,12)/f/h9H

>  <STRUCTURE_InChIKey>
ZQBWQLJJMGJREB-BGGKNDAXCV

>  <StudyType>
Carcinogenicity

>  <Endpoint>
TD50; Tumor Target Sites

>  <Species>
rat; mouse; hamster

>  <ActivityOutcome_CPDBAS_Mutagenicity>
active

>  <TD50_Rat_mg>
4.25

>  <TD50_Rat_mmol>
0.0178

>  <ActivityScore_CPDBAS_Rat>
44

>  <TD50_Rat_Note>
TD50 is harmonic mean of more than one positive test; harmonic mean of TD50 includes a value for upper 99% confidence limit from study with 100% tumor incidence but no lifetable; greater than ten-fold variation among TD50 values for positive results

>  <TargetSites_Rat_Male>
urinary bladder

>  <TargetSites_Rat_Female>
urinary bladder

>  <ActivityOutcome_CPDBAS_Rat>
active

>  <TD50_Mouse_mg>
19.7

>  <TD50_Mouse_mmol>
0.0824

>  <ActivityScore_CPDBAS_Mouse>
40

>  <TD50_Mouse_Note>
TD50 is harmonic mean of more than one positive test; greater than ten-fold variation among TD50 values for positive results

>  <TargetSites_Mouse_Male>
urinary bladder

>  <TargetSites_Mouse_Female>
hematopoietic system; lung; stomach; urinary bladder

>  <ActivityOutcome_CPDBAS_Mouse>
active

>  <TD50_Hamster_mg>
9.77

>  <TD50_Hamster_mmol>
0.0408

>  <ActivityScore_CPDBAS_Hamster>
60

>  <TD50_Hamster_Note>
TD50 value is overestimated as upper 99% confidence limit from study with 100% tumor incidence but no lifetable; harmonic mean of TD50 includes a value for upper 99% confidence limit from study with 100% tumor incidence but no lifetable

>  <TargetSites_Hamster_Male>
stomach; urinary bladder

>  <ActivityOutcome_CPDBAS_Hamster>
active

>  <ActivityOutcome_CPDBAS_SingleCellCall>
active

>  <ActivityOutcome_CPDBAS_MultiCellCall>
active

>  <ActivityOutcome_CPDBAS_MultiCellCall_Details>
multisite active; multisex active; multispecies active

>  <Note_CPDBAS>
TD50_Rat_Note modified v5a; TD50_Hamster_Note modified v5a

>  <ChemicalPage_URL>
http://potency.berkeley.edu/chempages/N-[4-(5-NITRO-2-FURYL)-2-THIAZOLYL]FORMAMIDE.html

$$$$



 22 23  0  0  0  0  0  0  0  0999 V2000
    7.6669   -5.3190    0.0000 C   0  0  0  0  0  0  0  0  0  0  0  0
    6.5208   -5.9866    0.0000 N   0  0  0  0  0  0  0  0  0  0  0  0
    5.3635   -5.3190    0.0000 C   0  0  0  0  0  0  0  0  0  0  0  0
    5.3635   -3.9948    0.0000 N   0  0  0  0  0  0  0  0  0  0  0  0
    6.5208   -3.3271    0.0000 C   0  0  0  0  0  0  0  0  0  0  0  0
    7.6669   -3.9948    0.0000 N   0  0  0  0  0  0  0  0  0  0  0  0
    6.5208   -1.9918    0.0000 N   0  0  0  0  0  0  0  0  0  0  0  0
    7.6669   -1.3353    0.0000 C   0  0  0  0  0  0  0  0  0  0  0  0
    8.8242   -1.9918    0.0000 C   0  0  0  0  0  0  0  0  0  0  0  0
    7.6669    0.0000    0.0000 O   0  0  0  0  0  0  0  0  0  0  0  0
    4.2173   -5.9866    0.0000 C   0  0  0  0  0  0  0  0  0  0  0  0
    4.0727   -7.3108    0.0000 C   0  0  0  0  0  0  0  0  0  0  0  0
    2.7708   -7.5890    0.0000 C   0  0  0  0  0  0  0  0  0  0  0  0
    2.1031   -6.4317    0.0000 C   0  0  0  0  0  0  0  0  0  0  0  0
    2.9933   -5.4525    0.0000 O   0  0  0  0  0  0  0  0  0  0  0  0
    0.7789   -6.2982    0.0000 N   0  3  0  0  0  0  0  0  0  0  0  0
    0.0000   -7.3776    0.0000 O   0  0  0  0  0  0  0  0  0  0  0  0
    0.2448   -5.0853    0.0000 O   0  5  0  0  0  0  0  0  0  0  0  0
    8.8242   -5.9866    0.0000 N   0  0  0  0  0  0  0  0  0  0  0  0
    9.9703   -5.3190    0.0000 C   0  0  0  0  0  0  0  0  0  0  0  0
   11.1276   -5.9866    0.0000 C   0  0  0  0  0  0  0  0  0  0  0  0
    9.9703   -3.9948    0.0000 O   0  0  0  0  0  0  0  0  0  0  0  0
  1  2  2  0  0  0  0
  1  6  1  0  0  0  0
  1 19  1  0  0  0  0
  2  3  1  0  0  0  0
  3  4  2  0  0  0  0
  3 11  1  0  0  0  0
  4  5  1  0  0  0  0
  5  6  2  0  0  0  0
  5  7  1  0  0  0  0
  7  8  1  0  0  0  0
  8  9  1  0  0  0  0
  8 10  2  0  0  0  0
 11 12  2  0  0  0  0
 11 15  1  0  0  0  0
 12 13  1  0  0  0  0
 13 14  2  0  0  0  0
 14 15  1  0  0  0  0
 14 16  1  0  0  0  0
 16 17  2  0  0  0  0
 16 18  1  0  0  0  0
 19 20  1  0  0  0  0
 20 21  1  0  0  0  0
 20 22  2  0  0  0  0
M  END
>  <DSSTox_RID>
20954

>  <DSSTox_CID>
954

>  <DSSTox_Generic_SID>
20954

>  <DSSTox_FileID>
999_CPDBAS_v5d

>  <STRUCTURE_Formula>
C11H10N6O5

>  <STRUCTURE_MolecularWeight>
306.2372

>  <STRUCTURE_ChemicalType>
defined organic

>  <STRUCTURE_TestedForm_DefinedOrganic>
parent

>  <STRUCTURE_Shown>
tested chemical

>  <TestSubstance_ChemicalName>
N,N'-[6-(5-Nitro-2-furyl)-S-triazine-2,4-diyl]bisacetamide

>  <TestSubstance_CASRN>
51325-35-0

>  <TestSubstance_Description>
single chemical compound

>  <STRUCTURE_ChemicalName_IUPAC>
N,N'-[6-(5-nitrofuran-2-yl)-1,3,5-triazine-2,4-diyl]diacetamide

>  <STRUCTURE_SMILES>
C1(=NC(=NC(=N1)NC(C)=O)C2=CC=C(O2)[N+](=O)[O-])NC(C)=O

>  <STRUCTURE_Parent_SMILES>
C1(=NC(=NC(=N1)NC(C)=O)C2=CC=C(O2)[N+](=O)[O-])NC(C)=O

>  <STRUCTURE_InChI>
InChI=1/C11H10N6O5/c1-5(18)12-10-14-9(15-11(16-10)13-6(2)19)7-3-4-8(22-7)17(20)21/h3-4H,1-2H3,(H2,12,13,14,15,16,18,19)/f/h12-13H

>  <STRUCTURE_InChIKey>
OSFMMSIDSIQFIT-BAINRFMOCD

>  <StudyType>
Carcinogenicity

>  <Endpoint>
TD50; Tumor Target Sites

>  <Species>
rat

>  <ActivityOutcome_CPDBAS_Mutagenicity>
active

>  <TD50_Rat_mg>
14.1

>  <TD50_Rat_mmol>
0.046

>  <ActivityScore_CPDBAS_Rat>
40

>  <TargetSites_Rat_Female>
mammary gland

>  <ActivityOutcome_CPDBAS_Rat>
active

>  <ActivityOutcome_CPDBAS_SingleCellCall>
active

>  <ChemicalPage_URL>
http://potency.berkeley.edu/chempages/N,N'-[6-(5-NITRO-2-FURYL)-s-TRIAZINE-2,4-DIYL]BISA.html

$$$$



 11 11  0  0  0  0  0  0  0  0999 V2000
    1.9968   -4.6079    0.0000 N   0  0  0  0  0  0  0  0  0  0  0  0
    2.6577   -3.4583    0.0000 C   0  0  0  0  0  0  0  0  0  0  0  0
    1.9968   -2.3039    0.0000 C   0  0  0  0  0  0  0  0  0  0  0  0
    2.6577   -1.1543    0.0000 C   0  0  0  0  0  0  0  0  0  0  0  0
    3.9889   -1.1543    0.0000 C   0  0  0  0  0  0  0  0  0  0  0  0
    4.6544   -2.3039    0.0000 C   0  0  0  0  0  0  0  0  0  0  0  0
    3.9889   -3.4583    0.0000 C   0  0  0  0  0  0  0  0  0  0  0  0
    4.6544    0.0000    0.0000 N   0  0  0  0  0  0  0  0  0  0  0  0
    0.6656   -2.3039    0.0000 N   0  3  0  0  0  0  0  0  0  0  0  0
    0.0000   -3.4583    0.0000 O   0  0  0  0  0  0  0  0  0  0  0  0
    0.0000   -1.1543    0.0000 O   0  5  0  0  0  0  0  0  0  0  0  0
  1  2  1  0  0  0  0
  2  3  2  0  0  0  0
  2  7  1  0  0  0  0
  3  4  1  0  0  0  0
  3  9  1  0  0  0  0
  4  5  2  0  0  0  0
  5  6  1  0  0  0  0
  5  8  1  0  0  0  0
  6  7  2  0  0  0  0
  9 10  2  0  0  0  0
  9 11  1  0  0  0  0
M  END
>  <DSSTox_RID>
20957

>  <DSSTox_CID>
957

>  <DSSTox_Generic_SID>
20957

>  <DSSTox_FileID>
1002_CPDBAS_v5d

>  <STRUCTURE_Formula>
C6H7N3O2

>  <STRUCTURE_MolecularWeight>
153.1387

>  <STRUCTURE_ChemicalType>
defined organic

>  <STRUCTURE_TestedForm_DefinedOrganic>
parent

>  <STRUCTURE_Shown>
tested chemical

>  <TestSubstance_ChemicalName>
2-Nitro-p-phenylenediamine

>  <TestSubstance_CASRN>
5307-14-2

>  <TestSubstance_Description>
single chemical compound

>  <STRUCTURE_ChemicalName_IUPAC>
2-nitrobenzene-1,4-diamine

>  <STRUCTURE_SMILES>
NC1=C(C=C(C=C1)N)[N+](=O)[O-]

>  <STRUCTURE_Parent_SMILES>
NC1=C(C=C(C=C1)N)[N+](=O)[O-]

>  <STRUCTURE_InChI>
InChI=1/C6H7N3O2/c7-4-1-2-5(8)6(3-4)9(10)11/h1-3H,7-8H2

>  <STRUCTURE_InChIKey>
HVHNMNGARPCGGD-UHFFFAOYAX

>  <StudyType>
Carcinogenicity

>  <Endpoint>
TD50; Tumor Target Sites

>  <Species>
rat; mouse

>  <ActivityOutcome_CPDBAS_Mutagenicity>
active

>  <ActivityScore_CPDBAS_Rat>
0

>  <TD50_Rat_Note>
no positive results

>  <TargetSites_Rat_Male>
no positive results

>  <TargetSites_Rat_Female>
no positive results

>  <ActivityOutcome_CPDBAS_Rat>
inactive

>  <TD50_Mouse_mg>
614

>  <TD50_Mouse_mmol>
4.01

>  <ActivityScore_CPDBAS_Mouse>
21

>  <TargetSites_Mouse_Male>
no positive results

>  <TargetSites_Mouse_Female>
liver

>  <ActivityOutcome_CPDBAS_Mouse>
active

>  <ActivityOutcome_CPDBAS_SingleCellCall>
active

>  <NTP_TechnicalReport>
TR 169

>  <ChemicalPage_URL>
http://potency.berkeley.edu/chempages/2-NITRO-p-PHENYLENEDIAMINE.html

$$$$



 11 11  0  0  0  0  0  0  0  0999 V2000
    0.0000   -3.4525    0.0000 O   0  0  0  0  0  0  0  0  0  0  0  0
    0.6642   -2.3037    0.0000 N   0  3  0  0  0  0  0  0  0  0  0  0
    1.9925   -2.3037    0.0000 C   0  0  0  0  0  0  0  0  0  0  0  0
    2.6567   -1.1488    0.0000 C   0  0  0  0  0  0  0  0  0  0  0  0
    3.9910   -1.1488    0.0000 C   0  0  0  0  0  0  0  0  0  0  0  0
    4.6552   -2.3037    0.0000 C   0  0  0  0  0  0  0  0  0  0  0  0
    3.9910   -3.4525    0.0000 C   0  0  0  0  0  0  0  0  0  0  0  0
    2.6567   -3.4525    0.0000 C   0  0  0  0  0  0  0  0  0  0  0  0
    5.9835   -2.3037    0.0000 N   0  0  0  0  0  0  0  0  0  0  0  0
    4.6552    0.0000    0.0000 N   0  0  0  0  0  0  0  0  0  0  0  0
    0.0000   -1.1488    0.0000 O   0  5  0  0  0  0  0  0  0  0  0  0
  1  2  2  0  0  0  0
  2  3  1  0  0  0  0
  2 11  1  0  0  0  0
  3  4  2  0  0  0  0
  3  8  1  0  0  0  0
  4  5  1  0  0  0  0
  5  6  2  0  0  0  0
  5 10  1  0  0  0  0
  6  7  1  0  0  0  0
  6  9  1  0  0  0  0
  7  8  2  0  0  0  0
M  END
>  <DSSTox_RID>
20958

>  <DSSTox_CID>
958

>  <DSSTox_Generic_SID>
20958

>  <DSSTox_FileID>
1003_CPDBAS_v5d

>  <STRUCTURE_Formula>
C6H7N3O2

>  <STRUCTURE_MolecularWeight>
153.1387

>  <STRUCTURE_ChemicalType>
defined organic

>  <STRUCTURE_TestedForm_DefinedOrganic>
parent

>  <STRUCTURE_Shown>
tested chemical

>  <TestSubstance_ChemicalName>
4-Nitro-o-phenylenediamine

>  <TestSubstance_CASRN>
99-56-9

>  <TestSubstance_Description>
single chemical compound

>  <STRUCTURE_ChemicalName_IUPAC>
4-nitrobenzene-1,2-diamine

>  <STRUCTURE_SMILES>
O=[N+](C1=CC(=C(C=C1)N)N)[O-]

>  <STRUCTURE_Parent_SMILES>
O=[N+](C1=CC(=C(C=C1)N)N)[O-]

>  <STRUCTURE_InChI>
InChI=1/C6H7N3O2/c7-5-2-1-4(9(10)11)3-6(5)8/h1-3H,7-8H2

>  <STRUCTURE_InChIKey>
RAUWPNXIALNKQM-UHFFFAOYAF

>  <StudyType>
Carcinogenicity

>  <Endpoint>
TD50; Tumor Target Sites

>  <Species>
rat; mouse

>  <ActivityOutcome_CPDBAS_Mutagenicity>
active

>  <ActivityScore_CPDBAS_Rat>
0

>  <TD50_Rat_Note>
no positive results

>  <TargetSites_Rat_Male>
no positive results

>  <TargetSites_Rat_Female>
no positive results

>  <ActivityOutcome_CPDBAS_Rat>
inactive

>  <ActivityScore_CPDBAS_Mouse>
0

>  <TD50_Mouse_Note>
no positive results

>  <TargetSites_Mouse_Male>
no positive results

>  <TargetSites_Mouse_Female>
no positive results

>  <ActivityOutcome_CPDBAS_Mouse>
inactive

>  <ActivityOutcome_CPDBAS_SingleCellCall>
inactive

>  <ActivityOutcome_CPDBAS_MultiCellCall>
inactive

>  <ActivityOutcome_CPDBAS_MultiCellCall_Details>
multisex inactive; multispecies inactive

>  <NTP_TechnicalReport>
TR 180

>  <ChemicalPage_URL>
http://potency.berkeley.edu/chempages/4-NITRO-o-PHENYLENEDIAMINE.html

$$$$



 11 11  0  0  0  0  0  0  0  0999 V2000
    0.0000   -3.4525    0.0000 O   0  0  0  0  0  0  0  0  0  0  0  0
    0.6642   -2.3037    0.0000 N   0  3  0  0  0  0  0  0  0  0  0  0
    1.9925   -2.3037    0.0000 C   0  0  0  0  0  0  0  0  0  0  0  0
    2.6567   -1.1488    0.0000 C   0  0  0  0  0  0  0  0  0  0  0  0
    3.9910   -1.1488    0.0000 C   0  0  0  0  0  0  0  0  0  0  0  0
    4.6552   -2.3037    0.0000 C   0  0  0  0  0  0  0  0  0  0  0  0
    3.9910   -3.4525    0.0000 C   0  0  0  0  0  0  0  0  0  0  0  0
    2.6567   -3.4525    0.0000 C   0  0  0  0  0  0  0  0  0  0  0  0
    5.9835   -2.3037    0.0000 C   0  0  0  0  0  0  0  0  0  0  0  0
    4.6552    0.0000    0.0000 N   0  0  0  0  0  0  0  0  0  0  0  0
    0.0000   -1.1488    0.0000 O   0  5  0  0  0  0  0  0  0  0  0  0
  1  2  2  0  0  0  0
  2  3  1  0  0  0  0
  2 11  1  0  0  0  0
  3  4  2  0  0  0  0
  3  8  1  0  0  0  0
  4  5  1  0  0  0  0
  5  6  2  0  0  0  0
  5 10  1  0  0  0  0
  6  7  1  0  0  0  0
  6  9  1  0  0  0  0
  7  8  2  0  0  0  0
M  END
>  <DSSTox_RID>
20959

>  <DSSTox_CID>
959

>  <DSSTox_Generic_SID>
20959

>  <DSSTox_FileID>
1004_CPDBAS_v5d

>  <STRUCTURE_Formula>
C7H8N2O2

>  <STRUCTURE_MolecularWeight>
152.1506

>  <STRUCTURE_ChemicalType>
defined organic

>  <STRUCTURE_TestedForm_DefinedOrganic>
parent

>  <STRUCTURE_Shown>
tested chemical

>  <TestSubstance_ChemicalName>
5-Nitro-o-toluidine

>  <TestSubstance_CASRN>
99-55-8

>  <TestSubstance_Description>
single chemical compound

>  <STRUCTURE_ChemicalName_IUPAC>
2-methyl-5-nitroaniline

>  <STRUCTURE_SMILES>
O=[N+](C1=CC(=C(C=C1)C)N)[O-]

>  <STRUCTURE_Parent_SMILES>
O=[N+](C1=CC(=C(C=C1)C)N)[O-]

>  <STRUCTURE_InChI>
InChI=1/C7H8N2O2/c1-5-2-3-6(9(10)11)4-7(5)8/h2-4H,8H2,1H3

>  <STRUCTURE_InChIKey>
DSBIJCMXAIKKKI-UHFFFAOYAH

>  <StudyType>
Carcinogenicity

>  <Endpoint>
TD50; Tumor Target Sites

>  <Species>
rat; mouse

>  <ActivityOutcome_CPDBAS_Mutagenicity>
active

>  <ActivityScore_CPDBAS_Rat>
0

>  <TD50_Rat_Note>
no positive results

>  <TargetSites_Rat_Male>
no positive results

>  <TargetSites_Rat_Female>
no positive results

>  <ActivityOutcome_CPDBAS_Rat>
inactive

>  <TD50_Mouse_mg>
277

>  <TD50_Mouse_mmol>
1.82

>  <ActivityScore_CPDBAS_Mouse>
25

>  <TD50_Mouse_Note>
TD50 is harmonic mean of more than one positive test

>  <TargetSites_Mouse_Male>
liver; vascular system

>  <TargetSites_Mouse_Female>
liver; vascular system

>  <ActivityOutcome_CPDBAS_Mouse>
active

>  <ActivityOutcome_CPDBAS_SingleCellCall>
active

>  <ActivityOutcome_CPDBAS_MultiCellCall>
active

>  <ActivityOutcome_CPDBAS_MultiCellCall_Details>
multisite active; multisex active

>  <NTP_TechnicalReport>
TR 107

>  <ChemicalPage_URL>
http://potency.berkeley.edu/chempages/5-NITRO-o-TOLUIDINE.html

$$$$



 15 17  0  0  0  0  0  0  0  0999 V2000
    4.2842    0.0000    0.0000 O   0  0  0  0  0  0  0  0  0  0  0  0
    4.2842   -1.3283    0.0000 N   0  3  0  0  0  0  0  0  0  0  0  0
    3.1294   -1.9925    0.0000 C   0  0  0  0  0  0  0  0  0  0  0  0
    1.9805   -1.3283    0.0000 C   0  0  0  0  0  0  0  0  0  0  0  0
    0.8257   -1.9925    0.0000 C   0  0  0  0  0  0  0  0  0  0  0  0
    0.8257   -3.3268    0.0000 C   0  0  0  0  0  0  0  0  0  0  0  0
    1.9805   -3.9910    0.0000 C   0  0  0  0  0  0  0  0  0  0  0  0
    3.1294   -3.3268    0.0000 C   0  0  0  0  0  0  0  0  0  0  0  0
    4.2842   -3.9910    0.0000 C   0  0  0  0  0  0  0  0  0  0  0  0
    4.2842   -5.3193    0.0000 C   0  0  0  0  0  0  0  0  0  0  0  0
    3.1294   -5.9835    0.0000 C   0  0  0  0  0  0  0  0  0  0  0  0
    1.9805   -5.3193    0.0000 C   0  0  0  0  0  0  0  0  0  0  0  0
    0.6642   -5.5168    0.0000 C   0  0  0  0  0  0  0  0  0  0  0  0
    0.0000   -4.3620    0.0000 C   0  0  0  0  0  0  0  0  0  0  0  0
    5.4330   -1.9925    0.0000 O   0  5  0  0  0  0  0  0  0  0  0  0
  1  2  2  0  0  0  0
  2  3  1  0  0  0  0
  2 15  1  0  0  0  0
  3  4  2  0  0  0  0
  3  8  1  0  0  0  0
  4  5  1  0  0  0  0
  5  6  2  0  0  0  0
  6  7  1  0  0  0  0
  6 14  1  0  0  0  0
  7  8  2  0  0  0  0
  7 12  1  0  0  0  0
  8  9  1  0  0  0  0
  9 10  2  0  0  0  0
 10 11  1  0  0  0  0
 11 12  2  0  0  0  0
 12 13  1  0  0  0  0
 13 14  1  0  0  0  0
M  END
>  <DSSTox_RID>
20960

>  <DSSTox_CID>
960

>  <DSSTox_Generic_SID>
20960

>  <DSSTox_FileID>
1005_CPDBAS_v5d

>  <STRUCTURE_Formula>
C12H9NO2

>  <STRUCTURE_MolecularWeight>
199.2054

>  <STRUCTURE_ChemicalType>
defined organic

>  <STRUCTURE_TestedForm_DefinedOrganic>
parent

>  <STRUCTURE_Shown>
tested chemical

>  <TestSubstance_ChemicalName>
5-Nitroacenaphthene

>  <TestSubstance_CASRN>
602-87-9

>  <TestSubstance_Description>
single chemical compound

>  <STRUCTURE_ChemicalName_IUPAC>
5-nitro-1,2-dihydroacenaphthylene

>  <STRUCTURE_SMILES>
O=[N+](C1=CC=C2C3=C1C=CC=C3CC2)[O-]

>  <STRUCTURE_Parent_SMILES>
O=[N+](C1=CC=C2C3=C1C=CC=C3CC2)[O-]

>  <STRUCTURE_InChI>
InChI=1/C12H9NO2/c14-13(15)11-7-6-9-5-4-8-2-1-3-10(11)12(8)9/h1-3,6-7H,4-5H2

>  <STRUCTURE_InChIKey>
CUARLQDWYSRQDF-UHFFFAOYAL

>  <StudyType>
Carcinogenicity

>  <Endpoint>
TD50; Tumor Target Sites

>  <Species>
rat; mouse; hamster

>  <ActivityOutcome_CPDBAS_Mutagenicity>
active

>  <TD50_Rat_mg>
8.67

>  <TD50_Rat_mmol>
0.0435

>  <ActivityScore_CPDBAS_Rat>
40

>  <TD50_Rat_Note>
TD50 is harmonic mean of more than one positive test

>  <TargetSites_Rat_Male>
ear Zymbals gland; lung

>  <TargetSites_Rat_Female>
clitoral gland; ear Zymbals gland; lung; mammary gland

>  <ActivityOutcome_CPDBAS_Rat>
active

>  <TD50_Mouse_mg>
45.8

>  <TD50_Mouse_mmol>
0.23

>  <ActivityScore_CPDBAS_Mouse>
35

>  <TargetSites_Mouse_Male>
no positive results

>  <TargetSites_Mouse_Female>
liver; ovary

>  <ActivityOutcome_CPDBAS_Mouse>
active

>  <ActivityScore_CPDBAS_Hamster>
0

>  <TD50_Hamster_Note>
no positive results

>  <TargetSites_Hamster_Female>
no positive results

>  <ActivityOutcome_CPDBAS_Hamster>
inactive

>  <ActivityOutcome_CPDBAS_SingleCellCall>
active

>  <ActivityOutcome_CPDBAS_MultiCellCall>
active

>  <ActivityOutcome_CPDBAS_MultiCellCall_Details>
multisite active; multisex active; multispecies active

>  <NTP_TechnicalReport>
TR 118

>  <ChemicalPage_URL>
http://potency.berkeley.edu/chempages/5-NITROACENAPHTHENE.html

$$$$



 10 10  0  0  0  0  0  0  0  0999 V2000
    0.0000   -2.3031    0.0000 O   0  0  0  0  0  0  0  0  0  0  0  0
    0.6640   -1.1546    0.0000 N   0  3  0  0  0  0  0  0  0  0  0  0
    1.9921   -1.1546    0.0000 C   0  0  0  0  0  0  0  0  0  0  0  0
    2.6561    0.0000    0.0000 C   0  0  0  0  0  0  0  0  0  0  0  0
    3.9901    0.0000    0.0000 C   0  0  0  0  0  0  0  0  0  0  0  0
    4.6542   -1.1546    0.0000 C   0  0  0  0  0  0  0  0  0  0  0  0
    3.9901   -2.3031    0.0000 C   0  0  0  0  0  0  0  0  0  0  0  0
    2.6561   -2.3031    0.0000 C   0  0  0  0  0  0  0  0  0  0  0  0
    5.9822   -1.1546    0.0000 N   0  0  0  0  0  0  0  0  0  0  0  0
    0.0000    0.0000    0.0000 O   0  5  0  0  0  0  0  0  0  0  0  0
  1  2  2  0  0  0  0
  2  3  1  0  0  0  0
  2 10  1  0  0  0  0
  3  4  2  0  0  0  0
  3  8  1  0  0  0  0
  4  5  1  0  0  0  0
  5  6  2  0  0  0  0
  6  7  1  0  0  0  0
  6  9  1  0  0  0  0
  7  8  2  0  0  0  0
M  END
>  <DSSTox_RID>
20961

>  <DSSTox_CID>
961

>  <DSSTox_Generic_SID>
20961

>  <DSSTox_FileID>
1006_CPDBAS_v5d

>  <STRUCTURE_Formula>
C6H6N2O2

>  <STRUCTURE_MolecularWeight>
138.124

>  <STRUCTURE_ChemicalType>
defined organic

>  <STRUCTURE_TestedForm_DefinedOrganic>
parent

>  <STRUCTURE_Shown>
tested chemical

>  <TestSubstance_ChemicalName>
p-Nitroaniline

>  <TestSubstance_CASRN>
100-01-6

>  <TestSubstance_Description>
single chemical compound

>  <STRUCTURE_ChemicalName_IUPAC>
4-nitroaniline

>  <STRUCTURE_SMILES>
O=[N+](C1=CC=C(C=C1)N)[O-]

>  <STRUCTURE_Parent_SMILES>
O=[N+](C1=CC=C(C=C1)N)[O-]

>  <STRUCTURE_InChI>
InChI=1/C6H6N2O2/c7-5-1-3-6(4-2-5)8(9)10/h1-4H,7H2

>  <STRUCTURE_InChIKey>
TYMLOMAKGOJONV-UHFFFAOYAW

>  <StudyType>
Carcinogenicity

>  <Endpoint>
TD50; Tumor Target Sites

>  <Species>
rat; mouse

>  <ActivityOutcome_CPDBAS_Mutagenicity>
active

>  <ActivityScore_CPDBAS_Rat>
0

>  <TD50_Rat_Note>
no positive results

>  <TargetSites_Rat_Male>
no positive results

>  <TargetSites_Rat_Female>
no positive results

>  <ActivityOutcome_CPDBAS_Rat>
inactive

>  <ActivityScore_CPDBAS_Mouse>
0

>  <TD50_Mouse_Note>
no positive results

>  <TargetSites_Mouse_Male>
no positive results

>  <TargetSites_Mouse_Female>
no positive results

>  <ActivityOutcome_CPDBAS_Mouse>
inactive

>  <ActivityOutcome_CPDBAS_SingleCellCall>
inactive

>  <ActivityOutcome_CPDBAS_MultiCellCall>
inactive

>  <ActivityOutcome_CPDBAS_MultiCellCall_Details>
multisex inactive; multispecies inactive

>  <NTP_TechnicalReport>
TR 418; additional results included in CPDB

>  <ChemicalPage_URL>
http://potency.berkeley.edu/chempages/p-NITROANILINE.html

$$$$



 11 11  0  0  0  0  0  0  0  0999 V2000
    1.9971    0.0000    0.0000 C   0  0  0  0  0  0  0  0  0  0  0  0
    2.6581   -1.1545    0.0000 O   0  0  0  0  0  0  0  0  0  0  0  0
    1.9971   -2.3043    0.0000 C   0  0  0  0  0  0  0  0  0  0  0  0
    2.6581   -3.4588    0.0000 C   0  0  0  0  0  0  0  0  0  0  0  0
    1.9971   -4.6086    0.0000 C   0  0  0  0  0  0  0  0  0  0  0  0
    0.6657   -4.6086    0.0000 C   0  0  0  0  0  0  0  0  0  0  0  0
    0.0000   -3.4588    0.0000 C   0  0  0  0  0  0  0  0  0  0  0  0
    0.6657   -2.3043    0.0000 C   0  0  0  0  0  0  0  0  0  0  0  0
    3.9895   -3.4588    0.0000 N   0  3  0  0  0  0  0  0  0  0  0  0
    4.6552   -2.3043    0.0000 O   0  0  0  0  0  0  0  0  0  0  0  0
    4.6552   -4.6086    0.0000 O   0  5  0  0  0  0  0  0  0  0  0  0
  1  2  1  0  0  0  0
  2  3  1  0  0  0  0
  3  4  2  0  0  0  0
  3  8  1  0  0  0  0
  4  5  1  0  0  0  0
  4  9  1  0  0  0  0
  5  6  2  0  0  0  0
  6  7  1  0  0  0  0
  7  8  2  0  0  0  0
  9 10  2  0  0  0  0
  9 11  1  0  0  0  0
M  END
>  <DSSTox_RID>
20962

>  <DSSTox_CID>
962

>  <DSSTox_Generic_SID>
20962

>  <DSSTox_FileID>
1007_CPDBAS_v5d

>  <STRUCTURE_Formula>
C7H7NO3

>  <STRUCTURE_MolecularWeight>
153.1354

>  <STRUCTURE_ChemicalType>
defined organic

>  <STRUCTURE_TestedForm_DefinedOrganic>
parent

>  <STRUCTURE_Shown>
tested chemical

>  <TestSubstance_ChemicalName>
o-Nitroanisole

>  <TestSubstance_CASRN>
91-23-6

>  <TestSubstance_Description>
single chemical compound

>  <STRUCTURE_ChemicalName_IUPAC>
1-methoxy-2-nitrobenzene

>  <STRUCTURE_SMILES>
COC1=C(C=CC=C1)[N+](=O)[O-]

>  <STRUCTURE_Parent_SMILES>
COC1=C(C=CC=C1)[N+](=O)[O-]

>  <STRUCTURE_InChI>
InChI=1/C7H7NO3/c1-11-7-5-3-2-4-6(7)8(9)10/h2-5H,1H3

>  <STRUCTURE_InChIKey>
CFBYEGUGFPZCNF-UHFFFAOYAE

>  <StudyType>
Carcinogenicity

>  <Endpoint>
TD50; Tumor Target Sites

>  <Species>
rat; mouse

>  <ActivityOutcome_CPDBAS_Mutagenicity>
active

>  <TD50_Rat_mg>
15.6

>  <TD50_Rat_mmol>
0.102

>  <ActivityScore_CPDBAS_Rat>
36

>  <TD50_Rat_Note>
TD50 is harmonic mean of more than one positive test; greater than ten-fold variation among TD50 values for positive results

>  <TargetSites_Rat_Male>
hematopoietic system; kidney; large intestine; urinary bladder

>  <TargetSites_Rat_Female>
hematopoietic system; kidney; large intestine; urinary bladder

>  <ActivityOutcome_CPDBAS_Rat>
active

>  <TD50_Mouse_mg>
178

>  <TD50_Mouse_mmol>
1.16

>  <ActivityScore_CPDBAS_Mouse>
27

>  <TD50_Mouse_Note>
TD50 is harmonic mean of more than one positive test

>  <TargetSites_Mouse_Male>
liver

>  <TargetSites_Mouse_Female>
liver

>  <ActivityOutcome_CPDBAS_Mouse>
active

>  <ActivityOutcome_CPDBAS_SingleCellCall>
active

>  <ActivityOutcome_CPDBAS_MultiCellCall>
active

>  <ActivityOutcome_CPDBAS_MultiCellCall_Details>
multisite active; multisex active; multispecies active

>  <NTP_TechnicalReport>
TR 416

>  <ChemicalPage_URL>
http://potency.berkeley.edu/chempages/o-NITROANISOLE.html

$$$$



 13 13  0  0  0  0  0  0  0  0999 V2000
    0.0000   -3.4590    0.0000 O   0  0  0  0  0  0  0  0  0  0  0  0
    0.6652   -2.3082    0.0000 N   0  3  0  0  0  0  0  0  0  0  0  0
    1.9956   -2.3082    0.0000 C   0  0  0  0  0  0  0  0  0  0  0  0
    2.6607   -1.1574    0.0000 C   0  0  0  0  0  0  0  0  0  0  0  0
    3.9911   -1.1574    0.0000 C   0  0  0  0  0  0  0  0  0  0  0  0
    4.6563   -2.3082    0.0000 C   0  0  0  0  0  0  0  0  0  0  0  0
    3.9911   -3.4590    0.0000 C   0  0  0  0  0  0  0  0  0  0  0  0
    2.6607   -3.4590    0.0000 C   0  0  0  0  0  0  0  0  0  0  0  0
    5.9867   -2.3082    0.0000 C   0  0  0  0  0  0  0  0  0  0  0  0
    6.6519   -3.4590    0.0000 O   0  0  0  0  0  0  0  0  0  0  0  0
    6.6519   -1.1574    0.0000 O   0  0  0  0  0  0  0  0  0  0  0  0
    4.6563    0.0000    0.0000 N   0  0  0  0  0  0  0  0  0  0  0  0
    0.0000   -1.1574    0.0000 O   0  5  0  0  0  0  0  0  0  0  0  0
  1  2  2  0  0  0  0
  2  3  1  0  0  0  0
  2 13  1  0  0  0  0
  3  4  2  0  0  0  0
  3  8  1  0  0  0  0
  4  5  1  0  0  0  0
  5  6  2  0  0  0  0
  5 12  1  0  0  0  0
  6  7  1  0  0  0  0
  6  9  1  0  0  0  0
  7  8  2  0  0  0  0
  9 10  2  0  0  0  0
  9 11  1  0  0  0  0
M  END
>  <DSSTox_RID>
20963

>  <DSSTox_CID>
963

>  <DSSTox_Generic_SID>
20963

>  <DSSTox_FileID>
1008_CPDBAS_v5d

>  <STRUCTURE_Formula>
C7H6N2O4

>  <STRUCTURE_MolecularWeight>
182.1335

>  <STRUCTURE_ChemicalType>
defined organic

>  <STRUCTURE_TestedForm_DefinedOrganic>
parent

>  <STRUCTURE_Shown>
tested chemical

>  <TestSubstance_ChemicalName>
4-Nitroanthranilic acid

>  <TestSubstance_CASRN>
619-17-0

>  <TestSubstance_Description>
single chemical compound

>  <STRUCTURE_ChemicalName_IUPAC>
2-amino-4-nitrobenzoic acid

>  <STRUCTURE_SMILES>
O=[N+](C1=CC(=C(C=C1)C(=O)O)N)[O-]

>  <STRUCTURE_Parent_SMILES>
O=[N+](C1=CC(=C(C=C1)C(=O)O)N)[O-]

>  <STRUCTURE_InChI>
InChI=1/C7H6N2O4/c8-6-3-4(9(12)13)1-2-5(6)7(10)11/h1-3H,8H2,(H,10,11)/f/h10H

>  <STRUCTURE_InChIKey>
UEALKTCRMBVTFN-KZFATGLACR

>  <StudyType>
Carcinogenicity

>  <Endpoint>
TD50; Tumor Target Sites

>  <Species>
rat; mouse

>  <ActivityOutcome_CPDBAS_Mutagenicity>
active

>  <ActivityScore_CPDBAS_Rat>
0

>  <TD50_Rat_Note>
no positive results

>  <TargetSites_Rat_Male>
no positive results

>  <TargetSites_Rat_Female>
no positive results

>  <ActivityOutcome_CPDBAS_Rat>
inactive

>  <ActivityScore_CPDBAS_Mouse>
0

>  <TD50_Mouse_Note>
no positive results

>  <TargetSites_Mouse_Male>
no positive results

>  <TargetSites_Mouse_Female>
no positive results

>  <ActivityOutcome_CPDBAS_Mouse>
inactive

>  <ActivityOutcome_CPDBAS_SingleCellCall>
inactive

>  <ActivityOutcome_CPDBAS_MultiCellCall>
inactive

>  <ActivityOutcome_CPDBAS_MultiCellCall_Details>
multisex inactive; multispecies inactive

>  <NTP_TechnicalReport>
TR 109

>  <ChemicalPage_URL>
http://potency.berkeley.edu/chempages/4-NITROANTHRANILIC%20ACID.html

$$$$



  9  9  0  0  0  0  0  0  0  0999 V2000
    0.0000   -2.3037    0.0000 O   0  0  0  0  0  0  0  0  0  0  0  0
    0.6655   -1.1542    0.0000 N   0  3  0  0  0  0  0  0  0  0  0  0
    1.9965   -1.1542    0.0000 C   0  0  0  0  0  0  0  0  0  0  0  0
    2.6574    0.0000    0.0000 C   0  0  0  0  0  0  0  0  0  0  0  0
    3.9884    0.0000    0.0000 C   0  0  0  0  0  0  0  0  0  0  0  0
    4.6539   -1.1542    0.0000 C   0  0  0  0  0  0  0  0  0  0  0  0
    3.9884   -2.3037    0.0000 C   0  0  0  0  0  0  0  0  0  0  0  0
    2.6574   -2.3037    0.0000 C   0  0  0  0  0  0  0  0  0  0  0  0
    0.0000    0.0000    0.0000 O   0  5  0  0  0  0  0  0  0  0  0  0
  1  2  2  0  0  0  0
  2  3  1  0  0  0  0
  2  9  1  0  0  0  0
  3  4  2  0  0  0  0
  3  8  1  0  0  0  0
  4  5  1  0  0  0  0
  5  6  2  0  0  0  0
  6  7  1  0  0  0  0
  7  8  2  0  0  0  0
M  END
>  <DSSTox_RID>
20964

>  <DSSTox_CID>
964

>  <DSSTox_Generic_SID>
20964

>  <DSSTox_FileID>
1009_CPDBAS_v5d

>  <STRUCTURE_Formula>
C6H5NO2

>  <STRUCTURE_MolecularWeight>
123.1094

>  <STRUCTURE_ChemicalType>
defined organic

>  <STRUCTURE_TestedForm_DefinedOrganic>
parent

>  <STRUCTURE_Shown>
tested chemical

>  <TestSubstance_ChemicalName>
Nitrobenzene

>  <TestSubstance_CASRN>
98-95-3

>  <TestSubstance_Description>
single chemical compound

>  <STRUCTURE_ChemicalName_IUPAC>
nitrobenzene

>  <STRUCTURE_SMILES>
O=[N+](C1=CC=CC=C1)[O-]

>  <STRUCTURE_Parent_SMILES>
O=[N+](C1=CC=CC=C1)[O-]

>  <STRUCTURE_InChI>
InChI=1/C6H5NO2/c8-7(9)6-4-2-1-3-5-6/h1-5H

>  <STRUCTURE_InChIKey>
LQNUZADURLCDLV-UHFFFAOYAA

>  <StudyType>
Carcinogenicity

>  <Endpoint>
TD50; Tumor Target Sites

>  <Species>
rat; mouse

>  <ActivityOutcome_CPDBAS_Mutagenicity>
inactive

>  <TD50_Rat_mg>
25.5

>  <TD50_Rat_mmol>
0.207

>  <ActivityScore_CPDBAS_Rat>
33

>  <TD50_Rat_Note>
TD50 is harmonic mean of more than one positive test

>  <TargetSites_Rat_Male>
kidney; liver; thyroid gland

>  <TargetSites_Rat_Female>
liver; uterus

>  <ActivityOutcome_CPDBAS_Rat>
active

>  <TD50_Mouse_mg>
296

>  <TD50_Mouse_mmol>
2.4

>  <ActivityScore_CPDBAS_Mouse>
24

>  <TD50_Mouse_Note>
TD50 is harmonic mean of more than one positive test

>  <TargetSites_Mouse_Male>
lung; thyroid gland

>  <TargetSites_Mouse_Female>
liver; mammary gland

>  <ActivityOutcome_CPDBAS_Mouse>
active

>  <ActivityOutcome_CPDBAS_SingleCellCall>
active

>  <ActivityOutcome_CPDBAS_MultiCellCall>
active

>  <ActivityOutcome_CPDBAS_MultiCellCall_Details>
multisite active; multisex active; multispecies active

>  <ChemicalPage_URL>
http://potency.berkeley.edu/chempages/NITROBENZENE.html

$$$$



 12 13  0  0  0  0  0  0  0  0999 V2000
    0.0000   -3.2909    0.0000 O   0  0  0  0  0  0  0  0  0  0  0  0
    0.6643   -2.1391    0.0000 N   0  3  0  0  0  0  0  0  0  0  0  0
    1.9928   -2.1391    0.0000 C   0  0  0  0  0  0  0  0  0  0  0  0
    2.6571   -0.9873    0.0000 C   0  0  0  0  0  0  0  0  0  0  0  0
    3.9918   -0.9873    0.0000 C   0  0  0  0  0  0  0  0  0  0  0  0
    4.6561   -2.1391    0.0000 C   0  0  0  0  0  0  0  0  0  0  0  0
    3.9918   -3.2909    0.0000 C   0  0  0  0  0  0  0  0  0  0  0  0
    2.6571   -3.2909    0.0000 C   0  0  0  0  0  0  0  0  0  0  0  0
    5.9542   -1.8649    0.0000 N   0  0  0  0  0  0  0  0  0  0  0  0
    6.0943   -0.5424    0.0000 C   0  0  0  0  0  0  0  0  0  0  0  0
    4.8816    0.0000    0.0000 N   0  0  0  0  0  0  0  0  0  0  0  0
    0.0000   -0.9873    0.0000 O   0  5  0  0  0  0  0  0  0  0  0  0
  1  2  2  0  0  0  0
  2  3  1  0  0  0  0
  2 12  1  0  0  0  0
  3  4  2  0  0  0  0
  3  8  1  0  0  0  0
  4  5  1  0  0  0  0
  5  6  2  0  0  0  0
  5 11  1  0  0  0  0
  6  7  1  0  0  0  0
  6  9  1  0  0  0  0
  7  8  2  0  0  0  0
  9 10  1  0  0  0  0
 10 11  2  0  0  0  0
M  END
>  <DSSTox_RID>
20965

>  <DSSTox_CID>
965

>  <DSSTox_Generic_SID>
20965

>  <DSSTox_FileID>
1010_CPDBAS_v5d

>  <STRUCTURE_Formula>
C7H5N3O2

>  <STRUCTURE_MolecularWeight>
163.1335

>  <STRUCTURE_ChemicalType>
defined organic

>  <STRUCTURE_TestedForm_DefinedOrganic>
parent

>  <STRUCTURE_Shown>
tested chemical

>  <TestSubstance_ChemicalName>
6-Nitrobenzimidazole

>  <TestSubstance_CASRN>
94-52-0

>  <TestSubstance_Description>
single chemical compound

>  <ChemicalNote>
tautomers

>  <STRUCTURE_ChemicalName_IUPAC>
5-nitro-1H-benzimidazole

>  <STRUCTURE_SMILES>
O=[N+](C1=CC2=C(C=C1)NC=N2)[O-]

>  <STRUCTURE_Parent_SMILES>
O=[N+](C1=CC2=C(C=C1)NC=N2)[O-]

>  <STRUCTURE_InChI>
InChI=1/C7H5N3O2/c11-10(12)5-1-2-6-7(3-5)9-4-8-6/h1-4H,(H,8,9)/f/h8H

>  <STRUCTURE_InChIKey>
XPAZGLFMMUODDK-FZOZFQFYCB

>  <StudyType>
Carcinogenicity

>  <Endpoint>
TD50; Tumor Target Sites

>  <Species>
rat; mouse

>  <ActivityOutcome_CPDBAS_Mutagenicity>
active

>  <ActivityScore_CPDBAS_Rat>
0

>  <TD50_Rat_Note>
no positive results

>  <TargetSites_Rat_Male>
no positive results

>  <TargetSites_Rat_Female>
no positive results

>  <ActivityOutcome_CPDBAS_Rat>
inactive

>  <TD50_Mouse_mg>
372

>  <TD50_Mouse_mmol>
2.28

>  <ActivityScore_CPDBAS_Mouse>
24

>  <TD50_Mouse_Note>
TD50 is harmonic mean of more than one positive test

>  <TargetSites_Mouse_Male>
liver

>  <TargetSites_Mouse_Female>
liver

>  <ActivityOutcome_CPDBAS_Mouse>
active

>  <ActivityOutcome_CPDBAS_SingleCellCall>
active

>  <ActivityOutcome_CPDBAS_MultiCellCall>
active

>  <ActivityOutcome_CPDBAS_MultiCellCall_Details>
multisex active

>  <NTP_TechnicalReport>
TR 117

>  <ChemicalPage_URL>
http://potency.berkeley.edu/chempages/6-NITROBENZIMIDAZOLE.html

$$$$



 12 12  0  0  0  0  0  0  0  0999 V2000
    0.0000    0.0000    0.0000 O   0  0  0  0  0  0  0  0  0  0  0  0
    0.6654   -1.1511    0.0000 C   0  0  0  0  0  0  0  0  0  0  0  0
    0.0000   -2.3023    0.0000 O   0  0  0  0  0  0  0  0  0  0  0  0
    1.9962   -1.1511    0.0000 C   0  0  0  0  0  0  0  0  0  0  0  0
    2.6616    0.0000    0.0000 C   0  0  0  0  0  0  0  0  0  0  0  0
    3.9924    0.0000    0.0000 C   0  0  0  0  0  0  0  0  0  0  0  0
    4.6578   -1.1511    0.0000 C   0  0  0  0  0  0  0  0  0  0  0  0
    3.9924   -2.3023    0.0000 C   0  0  0  0  0  0  0  0  0  0  0  0
    2.6616   -2.3023    0.0000 C   0  0  0  0  0  0  0  0  0  0  0  0
    5.9885   -1.1511    0.0000 N   0  3  0  0  0  0  0  0  0  0  0  0
    6.6539    0.0000    0.0000 O   0  0  0  0  0  0  0  0  0  0  0  0
    6.6539   -2.3023    0.0000 O   0  5  0  0  0  0  0  0  0  0  0  0
  1  2  1  0  0  0  0
  2  3  2  0  0  0  0
  2  4  1  0  0  0  0
  4  5  2  0  0  0  0
  4  9  1  0  0  0  0
  5  6  1  0  0  0  0
  6  7  2  0  0  0  0
  7  8  1  0  0  0  0
  7 10  1  0  0  0  0
  8  9  2  0  0  0  0
 10 11  2  0  0  0  0
 10 12  1  0  0  0  0
M  END
>  <DSSTox_RID>
20966

>  <DSSTox_CID>
966

>  <DSSTox_Generic_SID>
20966

>  <DSSTox_FileID>
1011_CPDBAS_v5d

>  <STRUCTURE_Formula>
C7H5NO4

>  <STRUCTURE_MolecularWeight>
167.1189

>  <STRUCTURE_ChemicalType>
defined organic

>  <STRUCTURE_TestedForm_DefinedOrganic>
parent

>  <STRUCTURE_Shown>
tested chemical

>  <TestSubstance_ChemicalName>
p-Nitrobenzoic acid

>  <TestSubstance_CASRN>
62-23-7

>  <TestSubstance_Description>
single chemical compound

>  <STRUCTURE_ChemicalName_IUPAC>
4-nitrobenzoic acid

>  <STRUCTURE_SMILES>
OC(=O)C1=CC=C(C=C1)[N+](=O)[O-]

>  <STRUCTURE_Parent_SMILES>
OC(=O)C1=CC=C(C=C1)[N+](=O)[O-]

>  <STRUCTURE_InChI>
InChI=1/C7H5NO4/c9-7(10)5-1-3-6(4-2-5)8(11)12/h1-4H,(H,9,10)/f/h9H

>  <STRUCTURE_InChIKey>
OTLNPYWUJOZPPA-BGGKNDAXCX

>  <StudyType>
Carcinogenicity

>  <Endpoint>
TD50; Tumor Target Sites

>  <Species>
rat; mouse

>  <ActivityOutcome_CPDBAS_Mutagenicity>
active

>  <TD50_Rat_mg>
287

>  <TD50_Rat_mmol>
1.72

>  <ActivityScore_CPDBAS_Rat>
23

>  <TargetSites_Rat_Male>
no positive results

>  <TargetSites_Rat_Female>
clitoral gland

>  <ActivityOutcome_CPDBAS_Rat>
active

>  <ActivityScore_CPDBAS_Mouse>
0

>  <TD50_Mouse_Note>
no positive results

>  <TargetSites_Mouse_Male>
no positive results

>  <TargetSites_Mouse_Female>
no positive results

>  <ActivityOutcome_CPDBAS_Mouse>
inactive

>  <ActivityOutcome_CPDBAS_SingleCellCall>
active

>  <NTP_TechnicalReport>
TR 442

>  <ChemicalPage_URL>
http://potency.berkeley.edu/chempages/p-NITROBENZOIC%20ACID.html

$$$$



  7  6  0  0  0  0  0  0  0  0999 V2000
    0.0000   -1.9878    0.0000 O   0  5  0  0  0  0  0  0  0  0  0  0
    1.1466   -1.3194    0.0000 N   0  3  0  0  0  0  0  0  0  0  0  0
    1.1466    0.0000    0.0000 O   0  0  0  0  0  0  0  0  0  0  0  0
    2.3046   -1.9878    0.0000 C   0  0  0  0  0  0  0  0  0  0  0  0
    3.4570   -1.3194    0.0000 C   0  0  0  0  0  0  0  0  0  0  0  0
    4.6150   -1.9878    0.0000 C   0  0  0  0  0  0  0  0  0  0  0  0
    5.7616   -1.3194    0.0000 C   0  0  0  0  0  0  0  0  0  0  0  0
  1  2  1  0  0  0  0
  2  3  2  0  0  0  0
  2  4  1  0  0  0  0
  4  5  1  0  0  0  0
  5  6  1  0  0  0  0
  6  7  1  0  0  0  0
M  END
>  <DSSTox_RID>
20967

>  <DSSTox_CID>
967

>  <DSSTox_Generic_SID>
20967

>  <DSSTox_FileID>
1012_CPDBAS_v5d

>  <STRUCTURE_Formula>
C4H9NO2

>  <STRUCTURE_MolecularWeight>
103.1198

>  <STRUCTURE_ChemicalType>
defined organic

>  <STRUCTURE_TestedForm_DefinedOrganic>
parent

>  <STRUCTURE_Shown>
tested chemical

>  <TestSubstance_ChemicalName>
1-Nitrobutane

>  <TestSubstance_CASRN>
627-05-4

>  <TestSubstance_Description>
single chemical compound

>  <STRUCTURE_ChemicalName_IUPAC>
1-nitrobutane

>  <STRUCTURE_SMILES>
[O-][N+](=O)CCCC

>  <STRUCTURE_Parent_SMILES>
[O-][N+](=O)CCCC

>  <STRUCTURE_InChI>
InChI=1/C4H9NO2/c1-2-3-4-5(6)7/h2-4H2,1H3

>  <STRUCTURE_InChIKey>
NALZTFARIYUCBY-UHFFFAOYAK

>  <StudyType>
Carcinogenicity

>  <Endpoint>
TD50; Tumor Target Sites

>  <Species>
rat

>  <ActivityOutcome_CPDBAS_Mutagenicity>
inactive

>  <ActivityScore_CPDBAS_Rat>
0

>  <TD50_Rat_Note>
no positive results

>  <TargetSites_Rat_Male>
no positive results

>  <ActivityOutcome_CPDBAS_Rat>
inactive

>  <ActivityOutcome_CPDBAS_SingleCellCall>
inactive

>  <Note_CPDBAS>
Rat added v2a

>  <ChemicalPage_URL>
http://potency.berkeley.edu/chempages/1-NITROBUTANE.html

$$$$



  7  6  0  0  0  0  0  0  0  0999 V2000
    0.0000   -2.3106    0.0000 C   0  0  0  0  0  0  0  0  0  0  0  0
    1.3282   -2.3106    0.0000 C   0  0  3  0  0  0  0  0  0  0  0  0
    3.3241   -1.1622    0.0000 O   0  5  0  0  0  0  0  0  0  0  0  0
    1.9993   -1.1622    0.0000 N   0  3  0  0  0  0  0  0  0  0  0  0
    1.3282    0.0000    0.0000 O   0  0  0  0  0  0  0  0  0  0  0  0
    1.9993   -3.4590    0.0000 C   0  0  0  0  0  0  0  0  0  0  0  0
    3.3241   -3.4590    0.0000 C   0  0  0  0  0  0  0  0  0  0  0  0
  1  2  1  0  0  0  0
  2  4  1  0  0  0  0
  2  6  1  0  0  0  0
  3  4  1  0  0  0  0
  4  5  2  0  0  0  0
  6  7  1  0  0  0  0
M  END
>  <DSSTox_RID>
20968

>  <DSSTox_CID>
968

>  <DSSTox_Generic_SID>
20968

>  <DSSTox_FileID>
1013_CPDBAS_v5d

>  <STRUCTURE_Formula>
C4H9NO2

>  <STRUCTURE_MolecularWeight>
103.1198

>  <STRUCTURE_ChemicalType>
defined organic

>  <STRUCTURE_TestedForm_DefinedOrganic>
parent

>  <STRUCTURE_Shown>
tested chemical

>  <TestSubstance_ChemicalName>
2-Nitrobutane

>  <TestSubstance_CASRN>
600-24-8

>  <TestSubstance_Description>
single chemical compound

>  <STRUCTURE_ChemicalName_IUPAC>
2-nitrobutane

>  <STRUCTURE_SMILES>
CC(CC)[N+]([O-])=O

>  <STRUCTURE_Parent_SMILES>
CC(CC)[N+]([O-])=O

>  <STRUCTURE_InChI>
InChI=1/C4H9NO2/c1-3-4(2)5(6)7/h4H,3H2,1-2H3

>  <STRUCTURE_InChIKey>
SUGZATOHBPXTDV-UHFFFAOYAE

>  <StudyType>
Carcinogenicity

>  <Endpoint>
TD50; Tumor Target Sites

>  <Species>
rat

>  <TD50_Rat_mg>
2.86

>  <TD50_Rat_mmol>
0.0277

>  <ActivityScore_CPDBAS_Rat>
42

>  <TargetSites_Rat_Male>
liver

>  <ActivityOutcome_CPDBAS_Rat>
active

>  <ActivityOutcome_CPDBAS_SingleCellCall>
active

>  <Note_CPDBAS>
Rat added v2a; TD50_Rat modified v5a

>  <ChemicalPage_URL>
http://potency.berkeley.edu/chempages/2-NITROBUTANE.html

$$$$



  5  4  0  0  0  0  0  0  0  0999 V2000
    1.1511    0.0000    0.0000 O   0  0  0  0  0  0  0  0  0  0  0  0
    1.1511   -1.3308    0.0000 N   0  3  0  0  0  0  0  0  0  0  0  0
    2.3056   -1.9945    0.0000 C   0  0  0  0  0  0  0  0  0  0  0  0
    3.4567   -1.3308    0.0000 C   0  0  0  0  0  0  0  0  0  0  0  0
    0.0000   -1.9945    0.0000 O   0  5  0  0  0  0  0  0  0  0  0  0
  1  2  2  0  0  0  0
  2  3  1  0  0  0  0
  2  5  1  0  0  0  0
  3  4  1  0  0  0  0
M  END
>  <DSSTox_RID>
20969

>  <DSSTox_CID>
969

>  <DSSTox_Generic_SID>
20969

>  <DSSTox_FileID>
1014_CPDBAS_v5d

>  <STRUCTURE_Formula>
C2H5NO2

>  <STRUCTURE_MolecularWeight>
75.0666

>  <STRUCTURE_ChemicalType>
defined organic

>  <STRUCTURE_TestedForm_DefinedOrganic>
parent

>  <STRUCTURE_Shown>
tested chemical

>  <TestSubstance_ChemicalName>
Nitroethane

>  <TestSubstance_CASRN>
79-24-3

>  <TestSubstance_Description>
single chemical compound

>  <STRUCTURE_ChemicalName_IUPAC>
nitroethane

>  <STRUCTURE_SMILES>
O=[N+](CC)[O-]

>  <STRUCTURE_Parent_SMILES>
O=[N+](CC)[O-]

>  <STRUCTURE_InChI>
InChI=1/C2H5NO2/c1-2-3(4)5/h2H2,1H3

>  <STRUCTURE_InChIKey>
MCSAJNNLRCFZED-UHFFFAOYAB

>  <StudyType>
Carcinogenicity

>  <Endpoint>
TD50; Tumor Target Sites

>  <Species>
rat

>  <ActivityOutcome_CPDBAS_Mutagenicity>
inactive

>  <ActivityScore_CPDBAS_Rat>
0

>  <TD50_Rat_Note>
no positive results

>  <TargetSites_Rat_Male>
no positive results

>  <TargetSites_Rat_Female>
no positive results

>  <ActivityOutcome_CPDBAS_Rat>
inactive

>  <ActivityOutcome_CPDBAS_SingleCellCall>
inactive

>  <ActivityOutcome_CPDBAS_MultiCellCall>
inactive

>  <ActivityOutcome_CPDBAS_MultiCellCall_Details>
multisex inactive

>  <ChemicalPage_URL>
http://potency.berkeley.edu/chempages/NITROETHANE.html

$$$$



 18 19  0  0  0  0  0  0  0  0999 V2000
    2.3005    0.0000    0.0000 Cl  0  0  0  0  0  0  0  0  0  0  0  0
    2.3005   -1.3264    0.0000 C   0  0  0  0  0  0  0  0  0  0  0  0
    3.4508   -1.9896    0.0000 C   0  0  0  0  0  0  0  0  0  0  0  0
    3.4508   -3.3264    0.0000 C   0  0  0  0  0  0  0  0  0  0  0  0
    2.3005   -3.9897    0.0000 C   0  0  0  0  0  0  0  0  0  0  0  0
    1.1503   -3.3264    0.0000 C   0  0  0  0  0  0  0  0  0  0  0  0
    1.1503   -1.9896    0.0000 C   0  0  0  0  0  0  0  0  0  0  0  0
    0.0000   -3.9897    0.0000 Cl  0  0  0  0  0  0  0  0  0  0  0  0
    4.6011   -1.3264    0.0000 O   0  0  0  0  0  0  0  0  0  0  0  0
    5.7617   -1.9896    0.0000 C   0  0  0  0  0  0  0  0  0  0  0  0
    6.9120   -1.3264    0.0000 C   0  0  0  0  0  0  0  0  0  0  0  0
    8.0622   -1.9896    0.0000 C   0  0  0  0  0  0  0  0  0  0  0  0
    8.0622   -3.3264    0.0000 C   0  0  0  0  0  0  0  0  0  0  0  0
    6.9120   -3.9897    0.0000 C   0  0  0  0  0  0  0  0  0  0  0  0
    5.7617   -3.3264    0.0000 C   0  0  0  0  0  0  0  0  0  0  0  0
    9.2125   -3.9897    0.0000 N   0  3  0  0  0  0  0  0  0  0  0  0
    9.2125   -5.3161    0.0000 O   0  0  0  0  0  0  0  0  0  0  0  0
   10.3627   -3.3264    0.0000 O   0  5  0  0  0  0  0  0  0  0  0  0
  1  2  1  0  0  0  0
  2  3  2  0  0  0  0
  2  7  1  0  0  0  0
  3  4  1  0  0  0  0
  3  9  1  0  0  0  0
  4  5  2  0  0  0  0
  5  6  1  0  0  0  0
  6  7  2  0  0  0  0
  6  8  1  0  0  0  0
  9 10  1  0  0  0  0
 10 11  2  0  0  0  0
 10 15  1  0  0  0  0
 11 12  1  0  0  0  0
 12 13  2  0  0  0  0
 13 14  1  0  0  0  0
 13 16  1  0  0  0  0
 14 15  2  0  0  0  0
 16 17  2  0  0  0  0
 16 18  1  0  0  0  0
M  END
>  <DSSTox_RID>
20970

>  <DSSTox_CID>
970

>  <DSSTox_Generic_SID>
20970

>  <DSSTox_FileID>
1015_CPDBAS_v5d

>  <STRUCTURE_Formula>
C12H7Cl2NO3

>  <STRUCTURE_MolecularWeight>
284.0949

>  <STRUCTURE_ChemicalType>
defined organic

>  <STRUCTURE_TestedForm_DefinedOrganic>
parent

>  <STRUCTURE_Shown>
tested chemical

>  <TestSubstance_ChemicalName>
Nitrofen

>  <TestSubstance_CASRN>
1836-75-5

>  <TestSubstance_Description>
single chemical compound

>  <STRUCTURE_ChemicalName_IUPAC>
2,4-dichloro-1-[(4-nitrophenyl)oxy]benzene

>  <STRUCTURE_SMILES>
ClC1=C(C=CC(=C1)Cl)OC2=CC=C(C=C2)[N+](=O)[O-]

>  <STRUCTURE_Parent_SMILES>
ClC1=C(C=CC(=C1)Cl)OC2=CC=C(C=C2)[N+](=O)[O-]

>  <STRUCTURE_InChI>
InChI=1/C12H7Cl2NO3/c13-8-1-6-12(11(14)7-8)18-10-4-2-9(3-5-10)15(16)17/h1-7H

>  <STRUCTURE_InChIKey>
XITQUSLLOSKDTB-UHFFFAOYAU

>  <StudyType>
Carcinogenicity

>  <Endpoint>
TD50; Tumor Target Sites

>  <Species>
rat; mouse

>  <ActivityOutcome_CPDBAS_Mutagenicity>
active

>  <TD50_Rat_mg>
420

>  <TD50_Rat_mmol>
1.48

>  <ActivityScore_CPDBAS_Rat>
24

>  <TargetSites_Rat_Male>
no positive results

>  <TargetSites_Rat_Female>
pancreas

>  <ActivityOutcome_CPDBAS_Rat>
active

>  <TD50_Mouse_mg>
115

>  <TD50_Mouse_mmol>
0.405

>  <ActivityScore_CPDBAS_Mouse>
33

>  <TD50_Mouse_Note>
TD50 is harmonic mean of more than one positive test

>  <TargetSites_Mouse_Male>
liver; vascular system

>  <TargetSites_Mouse_Female>
liver

>  <ActivityOutcome_CPDBAS_Mouse>
active

>  <ActivityOutcome_CPDBAS_SingleCellCall>
active

>  <ActivityOutcome_CPDBAS_MultiCellCall>
active

>  <ActivityOutcome_CPDBAS_MultiCellCall_Details>
multisite active; multisex active; multispecies active

>  <NTP_TechnicalReport>
TR 26

>  <ChemicalPage_URL>
http://potency.berkeley.edu/chempages/NITROFEN.html

$$$$



 16 18  0  0  0  0  0  0  0  0999 V2000
    4.3802   -1.8357    0.0000 C   0  0  0  0  0  0  0  0  0  0  0  0
    4.3802   -3.0898    0.0000 C   0  0  0  0  0  0  0  0  0  0  0  0
    3.2897   -1.1996    0.0000 C   0  0  0  0  0  0  0  0  0  0  0  0
    2.1901   -1.8357    0.0000 C   0  0  0  0  0  0  0  0  0  0  0  0
    2.1901   -3.0898    0.0000 C   0  0  0  0  0  0  0  0  0  0  0  0
    0.0000   -3.0989    0.0000 C   0  0  0  0  0  0  0  0  0  0  0  0
    1.0996   -3.7259    0.0000 C   0  0  0  0  0  0  0  0  0  0  0  0
    0.0000   -1.8357    0.0000 C   0  0  0  0  0  0  0  0  0  0  0  0
    1.0996   -1.1996    0.0000 C   0  0  0  0  0  0  0  0  0  0  0  0
    6.5794   -3.0989    0.0000 C   0  0  0  0  0  0  0  0  0  0  0  0
    5.4798   -3.7259    0.0000 C   0  0  0  0  0  0  0  0  0  0  0  0
    6.5794   -1.8357    0.0000 C   0  0  0  0  0  0  0  0  0  0  0  0
    5.4798   -1.1996    0.0000 C   0  0  0  0  0  0  0  0  0  0  0  0
    9.0875   -1.1814    0.0000 O   0  5  0  0  0  0  0  0  0  0  0  0
    7.7335   -1.1814    0.0000 N   0  3  0  0  0  0  0  0  0  0  0  0
    7.0519    0.0000    0.0000 O   0  0  0  0  0  0  0  0  0  0  0  0
  1  3  1  0  0  0  0
  1  2  2  0  0  0  0
  1 13  1  0  0  0  0
  2 11  1  0  0  0  0
  2  5  1  0  0  0  0
  3  4  1  0  0  0  0
  4  5  2  0  0  0  0
  4  9  1  0  0  0  0
  5  7  1  0  0  0  0
  6  7  2  0  0  0  0
  6  8  1  0  0  0  0
  8  9  2  0  0  0  0
 10 11  2  0  0  0  0
 10 12  1  0  0  0  0
 12 13  2  0  0  0  0
 12 15  1  0  0  0  0
 14 15  1  0  0  0  0
 15 16  2  0  0  0  0
M  END
>  <DSSTox_RID>
20971

>  <DSSTox_CID>
971

>  <DSSTox_Generic_SID>
20971

>  <DSSTox_FileID>
1016_CPDBAS_v5d

>  <STRUCTURE_Formula>
C13H9NO2

>  <STRUCTURE_MolecularWeight>
211.2161

>  <STRUCTURE_ChemicalType>
defined organic

>  <STRUCTURE_TestedForm_DefinedOrganic>
parent

>  <STRUCTURE_Shown>
tested chemical

>  <TestSubstance_ChemicalName>
2-Nitrofluorene

>  <TestSubstance_CASRN>
607-57-8

>  <TestSubstance_Description>
single chemical compound

>  <STRUCTURE_ChemicalName_IUPAC>
2-nitro-9H-fluorene

>  <STRUCTURE_SMILES>
[O-][N+](=O)c1ccc2c3ccccc3Cc2c1

>  <STRUCTURE_Parent_SMILES>
[O-][N+](=O)c1ccc2c3ccccc3Cc2c1

>  <STRUCTURE_InChI>
InChI=1/C13H9NO2/c15-14(16)11-5-6-13-10(8-11)7-9-3-1-2-4-12(9)13/h1-6,8H,7H2

>  <STRUCTURE_InChIKey>
XFOHWECQTFIEIX-UHFFFAOYAJ

>  <StudyType>
Carcinogenicity

>  <Endpoint>
TD50; Tumor Target Sites

>  <Species>
rat

>  <ActivityOutcome_CPDBAS_Mutagenicity>
active

>  <TD50_Rat_mg>
0.285

>  <TD50_Rat_mmol>
0.00135

>  <ActivityScore_CPDBAS_Rat>
55

>  <TargetSites_Rat_Male>
kidney; liver; stomach

>  <ActivityOutcome_CPDBAS_Rat>
active

>  <ActivityOutcome_CPDBAS_SingleCellCall>
active

>  <ActivityOutcome_CPDBAS_MultiCellCall>
active

>  <ActivityOutcome_CPDBAS_MultiCellCall_Details>
multisite active

>  <Note_CPDBAS>
Rat added v2a

>  <ChemicalPage_URL>
http://potency.berkeley.edu/chempages/2-NITROFLUORENE.html

$$$$



 17 18  0  0  0  0  0  0  0  0999 V2000
    9.0879   -4.6811    0.0000 O   0  0  0  0  0  0  0  0  0  0  0  0
    8.6718   -3.4139    0.0000 C   0  0  0  0  0  0  0  0  0  0  0  0
    7.4141   -3.0072    0.0000 N   0  0  0  0  0  0  0  0  0  0  0  0
    7.4141   -1.6738    0.0000 C   0  0  0  0  0  0  0  0  0  0  0  0
    8.6718   -1.2672    0.0000 C   0  0  0  0  0  0  0  0  0  0  0  0
    9.0879    0.0000    0.0000 O   0  0  0  0  0  0  0  0  0  0  0  0
    9.4567   -2.3358    0.0000 N   0  0  0  0  0  0  0  0  0  0  0  0
    6.3360   -3.7827    0.0000 N   0  0  0  0  0  0  0  0  0  0  0  0
    5.1161   -3.2437    0.0000 C   0  0  0  0  0  0  0  0  0  0  0  0
    4.0380   -4.0286    0.0000 C   0  0  0  0  0  0  0  0  0  0  0  0
    4.0380   -5.3620    0.0000 C   0  0  0  0  0  0  0  0  0  0  0  0
    2.7803   -5.7686    0.0000 C   0  0  0  0  0  0  0  0  0  0  0  0
    1.9954   -4.6905    0.0000 C   0  0  0  0  0  0  0  0  0  0  0  0
    2.7803   -3.6125    0.0000 O   0  0  0  0  0  0  0  0  0  0  0  0
    0.6620   -4.6905    0.0000 N   0  3  0  0  0  0  0  0  0  0  0  0
    0.0000   -5.8442    0.0000 O   0  0  0  0  0  0  0  0  0  0  0  0
    0.0000   -3.5368    0.0000 O   0  5  0  0  0  0  0  0  0  0  0  0
  1  2  2  0  0  0  0
  2  3  1  0  0  0  0
  2  7  1  0  0  0  0
  3  4  1  0  0  0  0
  3  8  1  0  0  0  0
  4  5  1  0  0  0  0
  5  6  2  0  0  0  0
  5  7  1  0  0  0  0
  8  9  2  0  0  0  0
  9 10  1  0  0  0  0
 10 11  2  0  0  0  0
 10 14  1  0  0  0  0
 11 12  1  0  0  0  0
 12 13  2  0  0  0  0
 13 14  1  0  0  0  0
 13 15  1  0  0  0  0
 15 16  2  0  0  0  0
 15 17  1  0  0  0  0
M  END
>  <DSSTox_RID>
20972

>  <DSSTox_CID>
972

>  <DSSTox_Generic_SID>
20972

>  <DSSTox_FileID>
1017_CPDBAS_v5d

>  <STRUCTURE_Formula>
C8H6N4O5

>  <STRUCTURE_MolecularWeight>
238.157

>  <STRUCTURE_ChemicalType>
defined organic

>  <STRUCTURE_TestedForm_DefinedOrganic>
parent

>  <STRUCTURE_Shown>
tested chemical

>  <TestSubstance_ChemicalName>
1-[(5-Nitrofurfurylidene)amino]hydantoin

>  <TestSubstance_CASRN>
67-20-9

>  <TestSubstance_Description>
single chemical compound

>  <ChemicalNote>
stereochem

>  <STRUCTURE_ChemicalName_IUPAC>
1-{[(1E)-(5-nitrofuran-2-yl)methylidene]amino}imidazolidine-2,4-dione

>  <STRUCTURE_SMILES>
O=C1N(CC(=O)N1)/N=C/C2=CC=C(O2)[N+](=O)[O-]

>  <STRUCTURE_Parent_SMILES>
O=C1N(CC(=O)N1)/N=C/C2=CC=C(O2)[N+](=O)[O-]

>  <STRUCTURE_InChI>
InChI=1/C8H6N4O5/c13-6-4-11(8(14)10-6)9-3-5-1-2-7(17-5)12(15)16/h1-3H,4H2,(H,10,13,14)/b9-3+/f/h10H

>  <STRUCTURE_InChIKey>
NXFQHRVNIOXGAQ-FLZDIJAGDD

>  <StudyType>
Carcinogenicity

>  <Endpoint>
TD50; Tumor Target Sites

>  <Species>
rat; mouse

>  <ActivityOutcome_CPDBAS_Mutagenicity>
active

>  <TD50_Rat_mg>
163

>  <TD50_Rat_mmol>
0.684

>  <ActivityScore_CPDBAS_Rat>
27

>  <TargetSites_Rat_Male>
kidney

>  <TargetSites_Rat_Female>
no positive results

>  <ActivityOutcome_CPDBAS_Rat>
active

>  <TD50_Mouse_mg>
1400

>  <TD50_Mouse_mmol>
5.88

>  <ActivityScore_CPDBAS_Mouse>
20

>  <TargetSites_Mouse_Male>
no positive results

>  <TargetSites_Mouse_Female>
ovary

>  <ActivityOutcome_CPDBAS_Mouse>
active

>  <ActivityOutcome_CPDBAS_SingleCellCall>
active

>  <ActivityOutcome_CPDBAS_MultiCellCall>
active

>  <ActivityOutcome_CPDBAS_MultiCellCall_Details>
multisite active; multisex active; multispecies active

>  <NTP_TechnicalReport>
TR 341

>  <ChemicalPage_URL>
http://potency.berkeley.edu/chempages/1-[(5-NITROFURFURYLIDENE)AMINO]HYDANTOIN.html

$$$$



 16 17  0  0  0  0  0  0  0  0999 V2000
    9.7089   -2.5923    0.0000 O   0  5  0  0  0  0  0  0  0  0  0  0
    8.4953   -2.0486    0.0000 N   0  3  0  0  0  0  0  0  0  0  0  0
    8.3594   -0.7282    0.0000 O   0  0  0  0  0  0  0  0  0  0  0  0
    7.4176   -2.8350    0.0000 C   0  0  0  0  0  0  0  0  0  0  0  0
    7.4176   -4.1651    0.0000 C   0  0  0  0  0  0  0  0  0  0  0  0
    6.1555   -4.5729    0.0000 C   0  0  0  0  0  0  0  0  0  0  0  0
    5.3690   -3.4952    0.0000 C   0  0  0  0  0  0  0  0  0  0  0  0
    6.1555   -2.4175    0.0000 O   0  0  0  0  0  0  0  0  0  0  0  0
    4.0389   -3.4952    0.0000 C   0  0  0  0  0  0  0  0  0  0  0  0
    3.3787   -2.3496    0.0000 N   0  0  0  0  0  0  0  0  0  0  0  0
    2.0486   -2.3496    0.0000 N   0  0  0  0  0  0  0  0  0  0  0  0
    1.2622   -3.4175    0.0000 C   0  0  0  0  0  0  0  0  0  0  0  0
    0.0000   -3.0098    0.0000 C   0  0  0  0  0  0  0  0  0  0  0  0
    0.0000   -1.6796    0.0000 N   0  0  0  0  0  0  0  0  0  0  0  0
    1.2622   -1.2719    0.0000 C   0  0  0  0  0  0  0  0  0  0  0  0
    1.6796    0.0000    0.0000 O   0  0  0  0  0  0  0  0  0  0  0  0
  1  2  1  0  0  0  0
  2  3  2  0  0  0  0
  2  4  1  0  0  0  0
  4  5  2  0  0  0  0
  4  8  1  0  0  0  0
  5  6  1  0  0  0  0
  6  7  2  0  0  0  0
  7  8  1  0  0  0  0
  7  9  1  0  0  0  0
  9 10  2  0  0  0  0
 10 11  1  0  0  0  0
 11 12  1  0  0  0  0
 11 15  1  0  0  0  0
 12 13  1  0  0  0  0
 13 14  1  0  0  0  0
 14 15  1  0  0  0  0
 15 16  2  0  0  0  0
M  END
>  <DSSTox_RID>
20973

>  <DSSTox_CID>
973

>  <DSSTox_Generic_SID>
20973

>  <DSSTox_FileID>
1018_CPDBAS_v5d

>  <STRUCTURE_Formula>
C8H8N4O4

>  <STRUCTURE_MolecularWeight>
224.1756

>  <STRUCTURE_ChemicalType>
defined organic

>  <STRUCTURE_TestedForm_DefinedOrganic>
parent

>  <STRUCTURE_Shown>
tested chemical

>  <TestSubstance_ChemicalName>
1-[(5-Nitrofurfurylidene)amino]-2-imidazolidinone

>  <TestSubstance_CASRN>
555-84-0

>  <TestSubstance_Description>
single chemical compound

>  <ChemicalNote>
stereochem

>  <STRUCTURE_ChemicalName_IUPAC>
1-{[(1E)-(5-nitrofuran-2-yl)methylidene]amino}imidazolidin-2-one

>  <STRUCTURE_SMILES>
[O-][N+](=O)C1=CC=C(O1)C=NN2CCNC2=O

>  <STRUCTURE_Parent_SMILES>
[O-][N+](=O)C1=CC=C(O1)C=NN2CCNC2=O

>  <STRUCTURE_InChI>
InChI=1/C8H8N4O4/c13-8-9-3-4-11(8)10-5-6-1-2-7(16-6)12(14)15/h1-2,5H,3-4H2,(H,9,13)/b10-5+/f/h9H

>  <STRUCTURE_InChIKey>
VSVAVMVWTLLTCH-IOJXJRBCDK

>  <StudyType>
Carcinogenicity

>  <Endpoint>
TD50; Tumor Target Sites

>  <Species>
rat

>  <TD50_Rat_mg>
5.26

>  <TD50_Rat_mmol>
0.0235

>  <ActivityScore_CPDBAS_Rat>
43

>  <TargetSites_Rat_Female>
hematopoietic system; mammary gland

>  <ActivityOutcome_CPDBAS_Rat>
active

>  <ActivityOutcome_CPDBAS_SingleCellCall>
active

>  <ActivityOutcome_CPDBAS_MultiCellCall>
active

>  <ActivityOutcome_CPDBAS_MultiCellCall_Details>
multisite active

>  <ChemicalPage_URL>
http://potency.berkeley.edu/chempages/1-[(5-NITROFURFURYLIDENE)AMINO]-2-IMIDAZOLIDINONE.html

$$$$



  8  7  0  0  0  0  0  0  0  0999 V2000
    6.9115   -1.9974    0.0000 Cl  0  0  0  0  0  0  0  0  0  0  0  0
    5.7573   -1.3339    0.0000 C   0  0  0  0  0  0  0  0  0  0  0  0
    4.6100   -1.9974    0.0000 C   0  0  0  0  0  0  0  0  0  0  0  0
    3.4558   -1.3339    0.0000 N   0  0  0  0  0  0  0  0  0  0  0  0
    3.4558    0.0000    0.0000 C   0  0  0  0  0  0  0  0  0  0  0  0
    2.3015   -1.9974    0.0000 C   0  0  0  0  0  0  0  0  0  0  0  0
    1.1542   -1.3339    0.0000 C   0  0  0  0  0  0  0  0  0  0  0  0
    0.0000   -1.9974    0.0000 Cl  0  0  0  0  0  0  0  0  0  0  0  0
  1  2  1  0  0  0  0
  2  3  1  0  0  0  0
  3  4  1  0  0  0  0
  4  5  1  0  0  0  0
  4  6  1  0  0  0  0
  6  7  1  0  0  0  0
  7  8  1  0  0  0  0
M  END
>  <DSSTox_RID>
20975

>  <DSSTox_CID>
975

>  <DSSTox_Generic_SID>
20975

>  <DSSTox_FileID>
1020_CPDBAS_v5d

>  <STRUCTURE_Formula>
C5H11Cl2N

>  <STRUCTURE_MolecularWeight>
156.0546

>  <STRUCTURE_ChemicalType>
defined organic

>  <STRUCTURE_TestedForm_DefinedOrganic>
parent

>  <STRUCTURE_Shown>
tested chemical

>  <TestSubstance_ChemicalName>
Nitrogen mustard

>  <TestSubstance_CASRN>
51-75-2

>  <TestSubstance_Description>
single chemical compound

>  <STRUCTURE_ChemicalName_IUPAC>
2-chloro-N-(2-chloroethyl)-N-methylethanamine

>  <STRUCTURE_SMILES>
ClCCN(C)CCCl

>  <STRUCTURE_Parent_SMILES>
ClCCN(C)CCCl

>  <STRUCTURE_InChI>
InChI=1/C5H11Cl2N/c1-8(4-2-6)5-3-7/h2-5H2,1H3

>  <STRUCTURE_InChIKey>
HAWPXGHAZFHHAD-UHFFFAOYAG

>  <StudyType>
Carcinogenicity

>  <Endpoint>
TD50; Tumor Target Sites

>  <Species>
rat

>  <ActivityOutcome_CPDBAS_Mutagenicity>
active

>  <TD50_Rat_mg>
0.0114

>  <TD50_Rat_mmol>
0.0000731

>  <ActivityScore_CPDBAS_Rat>
68

>  <TD50_Rat_Note>
positive test results only by intraperitoneal or intravenous injection

>  <TargetSites_Rat_Male>
all tumor bearing animals

>  <ActivityOutcome_CPDBAS_Rat>
active

>  <ActivityOutcome_CPDBAS_SingleCellCall>
active

>  <ChemicalPage_URL>
http://potency.berkeley.edu/chempages/NITROGEN%20MUSTARD.html

$$$$



  9  8  0  0  0  0  0  0  0  0999 V2000
    3.4581   -1.1568    0.0000 N   0  3  0  0  0  0  0  0  0  0  0  0
    4.1252   -2.3074    0.0000 C   0  0  0  0  0  0  0  0  0  0  0  0
    5.4533   -2.3074    0.0000 C   0  0  0  0  0  0  0  0  0  0  0  0
    6.1205   -1.1568    0.0000 Cl  0  0  0  0  0  0  0  0  0  0  0  0
    2.3074   -1.8178    0.0000 C   0  0  0  0  0  0  0  0  0  0  0  0
    1.1507   -1.1568    0.0000 C   0  0  0  0  0  0  0  0  0  0  0  0
    0.0000   -1.8178    0.0000 Cl  0  0  0  0  0  0  0  0  0  0  0  0
    2.7909    0.0000    0.0000 C   0  0  0  0  0  0  0  0  0  0  0  0
    4.6087   -0.4896    0.0000 O   0  5  0  0  0  0  0  0  0  0  0  0
  1  2  1  0  0  0  0
  1  5  1  0  0  0  0
  1  8  1  0  0  0  0
  1  9  1  0  0  0  0
  2  3  1  0  0  0  0
  3  4  1  0  0  0  0
  5  6  1  0  0  0  0
  6  7  1  0  0  0  0
M  END
>  <DSSTox_RID>
20976

>  <DSSTox_CID>
976

>  <DSSTox_Generic_SID>
20976

>  <DSSTox_FileID>
1021_CPDBAS_v5d

>  <STRUCTURE_Formula>
C5H11Cl2NO

>  <STRUCTURE_MolecularWeight>
172.054

>  <STRUCTURE_ChemicalType>
defined organic

>  <STRUCTURE_TestedForm_DefinedOrganic>
parent

>  <STRUCTURE_Shown>
tested chemical

>  <TestSubstance_ChemicalName>
Nitrogen mustard N-oxide

>  <TestSubstance_CASRN>
126-85-2

>  <TestSubstance_Description>
single chemical compound

>  <ChemicalNote>
ammonium

>  <STRUCTURE_ChemicalName_IUPAC>
bis(2-chloroethyl)methylamine oxide

>  <STRUCTURE_SMILES>
[N+](CCCl)(CCCl)(C)[O-]

>  <STRUCTURE_Parent_SMILES>
[N+](CCCl)(CCCl)(C)[O-]

>  <STRUCTURE_InChI>
InChI=1/C5H11Cl2NO/c1-8(9,4-2-6)5-3-7/h2-5H2,1H3

>  <STRUCTURE_InChIKey>
AFLXUQUGROGEFA-UHFFFAOYAS

>  <StudyType>
Carcinogenicity

>  <Endpoint>
TD50; Tumor Target Sites

>  <Species>
rat

>  <TD50_Rat_mg>
0.764

>  <TD50_Rat_mmol>
0.00444

>  <ActivityScore_CPDBAS_Rat>
50

>  <TD50_Rat_Note>
positive test results only by intraperitoneal or intravenous injection

>  <TargetSites_Rat_Male>
all tumor bearing animals

>  <ActivityOutcome_CPDBAS_Rat>
active

>  <ActivityOutcome_CPDBAS_SingleCellCall>
active

>  <ChemicalPage_URL>
http://potency.berkeley.edu/chempages/NITROGEN%20MUSTARD%20N-OXIDE.html

$$$$



  4  3  0  0  0  0  0  0  0  0999 V2000
    0.0000   -1.1505    0.0000 C   0  0  0  0  0  0  0  0  0  0  0  0
    1.3323   -1.1505    0.0000 N   0  3  0  0  0  0  0  0  0  0  0  0
    1.9973    0.0000    0.0000 O   0  0  0  0  0  0  0  0  0  0  0  0
    1.9973   -2.3010    0.0000 O   0  5  0  0  0  0  0  0  0  0  0  0
  1  2  1  0  0  0  0
  2  3  2  0  0  0  0
  2  4  1  0  0  0  0
M  END
>  <DSSTox_RID>
20977

>  <DSSTox_CID>
977

>  <DSSTox_Generic_SID>
20977

>  <DSSTox_FileID>
1022_CPDBAS_v5d

>  <STRUCTURE_Formula>
CH3NO2

>  <STRUCTURE_MolecularWeight>
61.04

>  <STRUCTURE_ChemicalType>
defined organic

>  <STRUCTURE_TestedForm_DefinedOrganic>
parent

>  <STRUCTURE_Shown>
tested chemical

>  <TestSubstance_ChemicalName>
Nitromethane

>  <TestSubstance_CASRN>
75-52-5

>  <TestSubstance_Description>
single chemical compound

>  <STRUCTURE_ChemicalName_IUPAC>
nitromethane

>  <STRUCTURE_SMILES>
[O-][N+](C)=O

>  <STRUCTURE_Parent_SMILES>
[O-][N+](C)=O

>  <STRUCTURE_InChI>
InChI=1/CH3NO2/c1-2(3)4/h1H3

>  <STRUCTURE_InChIKey>
LYGJENNIWJXYER-UHFFFAOYAW

>  <StudyType>
Carcinogenicity

>  <Endpoint>
TD50; Tumor Target Sites

>  <Species>
rat; mouse

>  <ActivityOutcome_CPDBAS_Mutagenicity>
inactive

>  <TD50_Rat_mg>
40.4

>  <TD50_Rat_mmol>
0.662

>  <ActivityScore_CPDBAS_Rat>
28

>  <TargetSites_Rat_Male>
no positive results

>  <TargetSites_Rat_Female>
mammary gland

>  <ActivityOutcome_CPDBAS_Rat>
active

>  <TD50_Mouse_mg>
469

>  <TD50_Mouse_mmol>
7.68

>  <ActivityScore_CPDBAS_Mouse>
18

>  <TD50_Mouse_Note>
TD50 is harmonic mean of more than one positive test

>  <TargetSites_Mouse_Male>
harderian gland; lung

>  <TargetSites_Mouse_Female>
harderian gland; liver; lung

>  <ActivityOutcome_CPDBAS_Mouse>
active

>  <ActivityOutcome_CPDBAS_SingleCellCall>
active

>  <ActivityOutcome_CPDBAS_MultiCellCall>
active

>  <ActivityOutcome_CPDBAS_MultiCellCall_Details>
multisite active; multisex active; multispecies active

>  <Note_CPDBAS>
Rat added v2a; Mouse added v2a

>  <NTP_TechnicalReport>
TR 461

>  <ChemicalPage_URL>
http://potency.berkeley.edu/chempages/NITROMETHANE.html

$$$$



 13 14  0  0  0  0  0  0  0  0999 V2000
    1.1516   -3.9902    0.0000 O   0  0  0  0  0  0  0  0  0  0  0  0
    1.1516   -2.6601    0.0000 N   0  3  0  0  0  0  0  0  0  0  0  0
    2.3031   -1.9922    0.0000 C   0  0  0  0  0  0  0  0  0  0  0  0
    3.4547   -2.6601    0.0000 C   0  0  0  0  0  0  0  0  0  0  0  0
    4.6063   -1.9922    0.0000 C   0  0  0  0  0  0  0  0  0  0  0  0
    4.6063   -0.6622    0.0000 C   0  0  0  0  0  0  0  0  0  0  0  0
    3.4547    0.0000    0.0000 C   0  0  0  0  0  0  0  0  0  0  0  0
    2.3031   -0.6622    0.0000 C   0  0  0  0  0  0  0  0  0  0  0  0
    5.7578   -2.6601    0.0000 C   0  0  0  0  0  0  0  0  0  0  0  0
    5.7578   -3.9902    0.0000 C   0  0  0  0  0  0  0  0  0  0  0  0
    4.6063   -4.6523    0.0000 C   0  0  0  0  0  0  0  0  0  0  0  0
    3.4547   -3.9902    0.0000 C   0  0  0  0  0  0  0  0  0  0  0  0
    0.0000   -1.9922    0.0000 O   0  5  0  0  0  0  0  0  0  0  0  0
  1  2  2  0  0  0  0
  2  3  1  0  0  0  0
  2 13  1  0  0  0  0
  3  4  2  0  0  0  0
  3  8  1  0  0  0  0
  4  5  1  0  0  0  0
  4 12  1  0  0  0  0
  5  6  2  0  0  0  0
  5  9  1  0  0  0  0
  6  7  1  0  0  0  0
  7  8  2  0  0  0  0
  9 10  2  0  0  0  0
 10 11  1  0  0  0  0
 11 12  2  0  0  0  0
M  END
>  <DSSTox_RID>
20978

>  <DSSTox_CID>
978

>  <DSSTox_Generic_SID>
20978

>  <DSSTox_FileID>
1023_CPDBAS_v5d

>  <STRUCTURE_Formula>
C10H7NO2

>  <STRUCTURE_MolecularWeight>
173.1681

>  <STRUCTURE_ChemicalType>
defined organic

>  <STRUCTURE_TestedForm_DefinedOrganic>
parent

>  <STRUCTURE_Shown>
tested chemical

>  <TestSubstance_ChemicalName>
1-Nitronaphthalene

>  <TestSubstance_CASRN>
86-57-7

>  <TestSubstance_Description>
single chemical compound

>  <STRUCTURE_ChemicalName_IUPAC>
1-nitronaphthalene

>  <STRUCTURE_SMILES>
O=[N+](C1=C2C(=CC=C1)C=CC=C2)[O-]

>  <STRUCTURE_Parent_SMILES>
O=[N+](C1=C2C(=CC=C1)C=CC=C2)[O-]

>  <STRUCTURE_InChI>
InChI=1/C10H7NO2/c12-11(13)10-7-3-5-8-4-1-2-6-9(8)10/h1-7H

>  <STRUCTURE_InChIKey>
RJKGJBPXVHTNJL-UHFFFAOYAZ

>  <StudyType>
Carcinogenicity

>  <Endpoint>
TD50; Tumor Target Sites

>  <Species>
rat; mouse

>  <ActivityOutcome_CPDBAS_Mutagenicity>
active

>  <ActivityScore_CPDBAS_Rat>
0

>  <TD50_Rat_Note>
no positive results

>  <TargetSites_Rat_Male>
no positive results

>  <TargetSites_Rat_Female>
no positive results

>  <ActivityOutcome_CPDBAS_Rat>
inactive

>  <ActivityScore_CPDBAS_Mouse>
0

>  <TD50_Mouse_Note>
no positive results

>  <TargetSites_Mouse_Male>
no positive results

>  <TargetSites_Mouse_Female>
no positive results

>  <ActivityOutcome_CPDBAS_Mouse>
inactive

>  <ActivityOutcome_CPDBAS_SingleCellCall>
inactive

>  <ActivityOutcome_CPDBAS_MultiCellCall>
inactive

>  <ActivityOutcome_CPDBAS_MultiCellCall_Details>
multisex inactive; multispecies inactive

>  <NTP_TechnicalReport>
TR 64

>  <ChemicalPage_URL>
http://potency.berkeley.edu/chempages/1-NITRONAPHTHALENE.html

$$$$



  8  7  0  0  0  0  0  0  0  0999 V2000
    3.4583   -2.6570    0.0000 O   0  0  0  0  0  0  0  0  0  0  0  0
    1.1466   -2.6570    0.0000 O   0  5  0  0  0  0  0  0  0  0  0  0
    2.3024   -1.9939    0.0000 N   0  3  0  0  0  0  0  0  0  0  0  0
    0.0000   -0.6631    0.0000 C   0  0  0  0  0  0  0  0  0  0  0  0
    1.1466    0.0000    0.0000 C   0  0  0  0  0  0  0  0  0  0  0  0
    2.3024   -0.6631    0.0000 C   0  0  0  0  0  0  0  0  0  0  0  0
    3.4583    0.0000    0.0000 C   0  0  0  0  0  0  0  0  0  0  0  0
    4.6049   -0.6631    0.0000 C   0  0  0  0  0  0  0  0  0  0  0  0
  1  3  2  0  0  0  0
  2  3  1  0  0  0  0
  3  6  1  0  0  0  0
  4  5  1  0  0  0  0
  5  6  1  0  0  0  0
  6  7  1  0  0  0  0
  7  8  1  0  0  0  0
M  END
>  <DSSTox_RID>
20979

>  <DSSTox_CID>
979

>  <DSSTox_Generic_SID>
20979

>  <DSSTox_FileID>
1024_CPDBAS_v5d

>  <STRUCTURE_Formula>
C5H11NO2

>  <STRUCTURE_MolecularWeight>
117.1463

>  <STRUCTURE_ChemicalType>
defined organic

>  <STRUCTURE_TestedForm_DefinedOrganic>
parent

>  <STRUCTURE_Shown>
tested chemical

>  <TestSubstance_ChemicalName>
3-Nitropentane

>  <TestSubstance_CASRN>
551-88-2

>  <TestSubstance_Description>
single chemical compound

>  <STRUCTURE_ChemicalName_IUPAC>
3-nitropentane

>  <STRUCTURE_SMILES>
CCC(CC)[N+]([O-])=O

>  <STRUCTURE_Parent_SMILES>
CCC(CC)[N+]([O-])=O

>  <STRUCTURE_InChI>
InChI=1/C5H11NO2/c1-3-5(4-2)6(7)8/h5H,3-4H2,1-2H3

>  <STRUCTURE_InChIKey>
RXPKOTQRDGEKFY-UHFFFAOYAW

>  <StudyType>
Carcinogenicity

>  <Endpoint>
TD50; Tumor Target Sites

>  <Species>
rat

>  <TD50_Rat_mg>
2.37

>  <TD50_Rat_mmol>
0.0202

>  <ActivityScore_CPDBAS_Rat>
43

>  <TargetSites_Rat_Male>
liver

>  <ActivityOutcome_CPDBAS_Rat>
active

>  <ActivityOutcome_CPDBAS_SingleCellCall>
active

>  <Note_CPDBAS>
Rat added v2a; TD50_Rat modified v5a

>  <ChemicalPage_URL>
http://potency.berkeley.edu/chempages/3-NITROPENTANE.html

$$$$



  6  5  0  0  0  0  0  0  0  0999 V2000
    3.4563    0.0000    0.0000 O   0  0  0  0  0  0  0  0  0  0  0  0
    3.4563   -1.3318    0.0000 N   0  3  0  0  0  0  0  0  0  0  0  0
    2.3042   -1.9954    0.0000 C   0  0  0  0  0  0  0  0  0  0  0  0
    1.1521   -1.3318    0.0000 C   0  0  0  0  0  0  0  0  0  0  0  0
    0.0000   -1.9954    0.0000 C   0  0  0  0  0  0  0  0  0  0  0  0
    4.6084   -1.9954    0.0000 O   0  5  0  0  0  0  0  0  0  0  0  0
  1  2  2  0  0  0  0
  2  3  1  0  0  0  0
  2  6  1  0  0  0  0
  3  4  1  0  0  0  0
  4  5  1  0  0  0  0
M  END
>  <DSSTox_RID>
20980

>  <DSSTox_CID>
980

>  <DSSTox_Generic_SID>
20980

>  <DSSTox_FileID>
1025_CPDBAS_v5d

>  <STRUCTURE_Formula>
C3H7NO2

>  <STRUCTURE_MolecularWeight>
89.0932

>  <STRUCTURE_ChemicalType>
defined organic

>  <STRUCTURE_TestedForm_DefinedOrganic>
parent

>  <STRUCTURE_Shown>
tested chemical

>  <TestSubstance_ChemicalName>
1-Nitropropane

>  <TestSubstance_CASRN>
108-03-2

>  <TestSubstance_Description>
single chemical compound

>  <STRUCTURE_ChemicalName_IUPAC>
1-nitropropane

>  <STRUCTURE_SMILES>
O=[N+](CCC)[O-]

>  <STRUCTURE_Parent_SMILES>
O=[N+](CCC)[O-]

>  <STRUCTURE_InChI>
InChI=1/C3H7NO2/c1-2-3-4(5)6/h2-3H2,1H3

>  <STRUCTURE_InChIKey>
JSZOAYXJRCEYSX-UHFFFAOYAX

>  <StudyType>
Carcinogenicity

>  <Endpoint>
TD50; Tumor Target Sites

>  <Species>
rat

>  <ActivityOutcome_CPDBAS_Mutagenicity>
inactive

>  <ActivityScore_CPDBAS_Rat>
0

>  <TD50_Rat_Note>
no positive results

>  <TargetSites_Rat_Male>
no positive results

>  <TargetSites_Rat_Female>
no positive results

>  <ActivityOutcome_CPDBAS_Rat>
inactive

>  <ActivityOutcome_CPDBAS_SingleCellCall>
inactive

>  <ActivityOutcome_CPDBAS_MultiCellCall>
inactive

>  <ActivityOutcome_CPDBAS_MultiCellCall_Details>
multisex inactive

>  <ChemicalPage_URL>
http://potency.berkeley.edu/chempages/1-NITROPROPANE.html

$$$$



  6  5  0  0  0  0  0  0  0  0999 V2000
    1.3307    0.0000    0.0000 C   0  0  0  0  0  0  0  0  0  0  0  0
    1.9943   -1.1509    0.0000 C   0  0  0  0  0  0  0  0  0  0  0  0
    1.3307   -2.3053    0.0000 N   0  3  0  0  0  0  0  0  0  0  0  0
    1.9943   -3.4563    0.0000 O   0  0  0  0  0  0  0  0  0  0  0  0
    0.0000   -2.3053    0.0000 O   0  5  0  0  0  0  0  0  0  0  0  0
    3.3250   -1.1509    0.0000 C   0  0  0  0  0  0  0  0  0  0  0  0
  1  2  1  0  0  0  0
  2  3  1  0  0  0  0
  2  6  1  0  0  0  0
  3  4  2  0  0  0  0
  3  5  1  0  0  0  0
M  END
>  <DSSTox_RID>
20981

>  <DSSTox_CID>
981

>  <DSSTox_Generic_SID>
20981

>  <DSSTox_FileID>
1026_CPDBAS_v5d

>  <STRUCTURE_Formula>
C3H7NO2

>  <STRUCTURE_MolecularWeight>
89.0932

>  <STRUCTURE_ChemicalType>
defined organic

>  <STRUCTURE_TestedForm_DefinedOrganic>
parent

>  <STRUCTURE_Shown>
tested chemical

>  <TestSubstance_ChemicalName>
2-Nitropropane

>  <TestSubstance_CASRN>
79-46-9

>  <TestSubstance_Description>
single chemical compound

>  <STRUCTURE_ChemicalName_IUPAC>
2-nitropropane

>  <STRUCTURE_SMILES>
CC([N+](=O)[O-])C

>  <STRUCTURE_Parent_SMILES>
CC([N+](=O)[O-])C

>  <STRUCTURE_InChI>
InChI=1/C3H7NO2/c1-3(2)4(5)6/h3H,1-2H3

>  <STRUCTURE_InChIKey>
FGLBSLMDCBOPQK-UHFFFAOYAM

>  <StudyType>
Carcinogenicity

>  <Endpoint>
TD50; Tumor Target Sites

>  <Species>
rat

>  <ActivityOutcome_CPDBAS_Mutagenicity>
active

>  <ActivityScore_CPDBAS_Rat>
0

>  <TD50_Rat_Note>
no positive results

>  <TargetSites_Rat_Male>
no positive results

>  <TargetSites_Rat_Female>
no positive results

>  <ActivityOutcome_CPDBAS_Rat>
inactive

>  <ActivityOutcome_CPDBAS_SingleCellCall>
inactive

>  <ActivityOutcome_CPDBAS_MultiCellCall>
inactive

>  <ActivityOutcome_CPDBAS_MultiCellCall_Details>
multisex inactive

>  <ChemicalPage_URL>
http://potency.berkeley.edu/chempages/2-NITROPROPANE.html

$$$$



  8  7  0  0  0  0  0  0  0  0999 V2000
    5.7628   -1.9939    0.0000 O   0  0  0  0  0  0  0  0  0  0  0  0
    4.6103   -1.3312    0.0000 C   0  0  0  0  0  0  0  0  0  0  0  0
    4.6103    0.0000    0.0000 O   0  0  0  0  0  0  0  0  0  0  0  0
    3.4577   -1.9939    0.0000 C   0  0  0  0  0  0  0  0  0  0  0  0
    2.3051   -1.3312    0.0000 C   0  0  0  0  0  0  0  0  0  0  0  0
    1.1526   -1.9939    0.0000 N   0  3  0  0  0  0  0  0  0  0  0  0
    1.1526   -3.3252    0.0000 O   0  0  0  0  0  0  0  0  0  0  0  0
    0.0000   -1.3312    0.0000 O   0  5  0  0  0  0  0  0  0  0  0  0
  1  2  1  0  0  0  0
  2  3  2  0  0  0  0
  2  4  1  0  0  0  0
  4  5  1  0  0  0  0
  5  6  1  0  0  0  0
  6  7  2  0  0  0  0
  6  8  1  0  0  0  0
M  END
>  <DSSTox_RID>
20982

>  <DSSTox_CID>
982

>  <DSSTox_Generic_SID>
20982

>  <DSSTox_FileID>
1027_CPDBAS_v5d

>  <STRUCTURE_Formula>
C3H5NO4

>  <STRUCTURE_MolecularWeight>
119.0761

>  <STRUCTURE_ChemicalType>
defined organic

>  <STRUCTURE_TestedForm_DefinedOrganic>
parent

>  <STRUCTURE_Shown>
tested chemical

>  <TestSubstance_ChemicalName>
3-Nitropropionic acid

>  <TestSubstance_CASRN>
504-88-1

>  <TestSubstance_Description>
single chemical compound

>  <STRUCTURE_ChemicalName_IUPAC>
3-nitropropanoic acid

>  <STRUCTURE_SMILES>
OC(=O)CC[N+](=O)[O-]

>  <STRUCTURE_Parent_SMILES>
OC(=O)CC[N+](=O)[O-]

>  <STRUCTURE_InChI>
InChI=1/C3H5NO4/c5-3(6)1-2-4(7)8/h1-2H2,(H,5,6)/f/h5H

>  <STRUCTURE_InChIKey>
WBLZUCOIBUDNBV-JSWHHWTPCG

>  <StudyType>
Carcinogenicity

>  <Endpoint>
TD50; Tumor Target Sites

>  <Species>
rat; mouse

>  <ActivityOutcome_CPDBAS_Mutagenicity>
active

>  <ActivityScore_CPDBAS_Rat>
0

>  <TD50_Rat_Note>
no positive results

>  <TargetSites_Rat_Male>
no positive results

>  <TargetSites_Rat_Female>
no positive results

>  <ActivityOutcome_CPDBAS_Rat>
inactive

>  <ActivityScore_CPDBAS_Mouse>
0

>  <TD50_Mouse_Note>
no positive results

>  <TargetSites_Mouse_Male>
no positive results

>  <TargetSites_Mouse_Female>
no positive results

>  <ActivityOutcome_CPDBAS_Mouse>
inactive

>  <ActivityOutcome_CPDBAS_SingleCellCall>
inactive

>  <ActivityOutcome_CPDBAS_MultiCellCall>
inactive

>  <ActivityOutcome_CPDBAS_MultiCellCall_Details>
multisex inactive; multispecies inactive

>  <NTP_TechnicalReport>
TR 52

>  <ChemicalPage_URL>
http://potency.berkeley.edu/chempages/3-NITROPROPIONIC%20ACID.html

$$$$



 19 22  0  0  0  0  0  0  0  0999 V2000
    6.9107   -3.9916    0.0000 O   0  0  0  0  0  0  0  0  0  0  0  0
    6.9107   -2.6611    0.0000 N   0  3  0  0  0  0  0  0  0  0  0  0
    5.7576   -1.9918    0.0000 C   0  0  0  0  0  0  0  0  0  0  0  0
    5.7576   -0.6612    0.0000 C   0  0  0  0  0  0  0  0  0  0  0  0
    4.6045    0.0000    0.0000 C   0  0  0  0  0  0  0  0  0  0  0  0
    3.4594   -0.6612    0.0000 C   0  0  0  0  0  0  0  0  0  0  0  0
    3.4594   -1.9918    0.0000 C   0  0  0  0  0  0  0  0  0  0  0  0
    2.3063   -2.6611    0.0000 C   0  0  0  0  0  0  0  0  0  0  0  0
    2.3063   -3.9916    0.0000 C   0  0  0  0  0  0  0  0  0  0  0  0
    3.4594   -4.6528    0.0000 C   0  0  0  0  0  0  0  0  0  0  0  0
    4.6045   -3.9916    0.0000 C   0  0  0  0  0  0  0  0  0  0  0  0
    4.6045   -2.6611    0.0000 C   0  0  0  0  0  0  0  0  0  0  0  0
    1.1531   -4.6528    0.0000 C   0  0  0  0  0  0  0  0  0  0  0  0
    0.0000   -3.9916    0.0000 C   0  0  0  0  0  0  0  0  0  0  0  0
    0.0000   -2.6611    0.0000 C   0  0  0  0  0  0  0  0  0  0  0  0
    1.1531   -1.9918    0.0000 C   0  0  0  0  0  0  0  0  0  0  0  0
    1.1531   -0.6612    0.0000 C   0  0  0  0  0  0  0  0  0  0  0  0
    2.3063    0.0000    0.0000 C   0  0  0  0  0  0  0  0  0  0  0  0
    8.0639   -1.9918    0.0000 O   0  5  0  0  0  0  0  0  0  0  0  0
  1  2  2  0  0  0  0
  2  3  1  0  0  0  0
  2 19  1  0  0  0  0
  3  4  2  0  0  0  0
  3 12  1  0  0  0  0
  4  5  1  0  0  0  0
  5  6  2  0  0  0  0
  6  7  1  0  0  0  0
  6 18  1  0  0  0  0
  7  8  2  0  0  0  0
  7 12  1  0  0  0  0
  8  9  1  0  0  0  0
  8 16  1  0  0  0  0
  9 10  2  0  0  0  0
  9 13  1  0  0  0  0
 10 11  1  0  0  0  0
 11 12  2  0  0  0  0
 13 14  2  0  0  0  0
 14 15  1  0  0  0  0
 15 16  2  0  0  0  0
 16 17  1  0  0  0  0
 17 18  2  0  0  0  0
M  END
>  <DSSTox_RID>
20983

>  <DSSTox_CID>
983

>  <DSSTox_Generic_SID>
20983

>  <DSSTox_FileID>
1028_CPDBAS_v5d

>  <STRUCTURE_Formula>
C16H9NO2

>  <STRUCTURE_MolecularWeight>
247.2482

>  <STRUCTURE_ChemicalType>
defined organic

>  <STRUCTURE_TestedForm_DefinedOrganic>
parent

>  <STRUCTURE_Shown>
tested chemical

>  <TestSubstance_ChemicalName>
1-Nitropyrene

>  <TestSubstance_CASRN>
5522-43-0

>  <TestSubstance_Description>
single chemical compound

>  <STRUCTURE_ChemicalName_IUPAC>
1-nitropyrene

>  <STRUCTURE_SMILES>
O=[N+](C1=CC=C2C3=C4C(=CC=C13)C=CC=C4C=C2)[O-]

>  <STRUCTURE_Parent_SMILES>
O=[N+](C1=CC=C2C3=C4C(=CC=C13)C=CC=C4C=C2)[O-]

>  <STRUCTURE_InChI>
InChI=1/C16H9NO2/c18-17(19)14-9-7-12-5-4-10-2-1-3-11-6-8-13(14)16(12)15(10)11/h1-9H

>  <STRUCTURE_InChIKey>
ALRLPDGCPYIVHP-UHFFFAOYAY

>  <StudyType>
Carcinogenicity

>  <Endpoint>
TD50; Tumor Target Sites

>  <Species>
rat

>  <TD50_Rat_mg>
3.33

>  <TD50_Rat_mmol>
0.0135

>  <ActivityScore_CPDBAS_Rat>
45

>  <TargetSites_Rat_Female>
clitoral gland; hematopoietic system; mammary gland

>  <ActivityOutcome_CPDBAS_Rat>
active

>  <ActivityOutcome_CPDBAS_SingleCellCall>
active

>  <ActivityOutcome_CPDBAS_MultiCellCall>
active

>  <ActivityOutcome_CPDBAS_MultiCellCall_Details>
multisite active

>  <ChemicalPage_URL>
http://potency.berkeley.edu/chempages/1-NITROPYRENE.html

$$$$



 13 14  0  0  0  0  0  0  0  0999 V2000
    0.0000   -3.4578    0.0000 O   0  0  0  0  0  0  0  0  0  0  0  0
    0.6650   -2.3074    0.0000 N   0  3  0  0  0  0  0  0  0  0  0  0
    1.9949   -2.3074    0.0000 C   0  0  0  0  0  0  0  0  0  0  0  0
    2.6599   -1.1570    0.0000 C   0  0  0  0  0  0  0  0  0  0  0  0
    3.9898   -1.1570    0.0000 C   0  0  0  0  0  0  0  0  0  0  0  0
    4.6548    0.0000    0.0000 C   0  0  0  0  0  0  0  0  0  0  0  0
    5.9847    0.0000    0.0000 C   0  0  0  0  0  0  0  0  0  0  0  0
    6.6497   -1.1570    0.0000 C   0  0  0  0  0  0  0  0  0  0  0  0
    5.9847   -2.3074    0.0000 N   0  0  0  0  0  0  0  0  0  0  0  0
    4.6548   -2.3074    0.0000 C   0  0  0  0  0  0  0  0  0  0  0  0
    3.9898   -3.4578    0.0000 C   0  0  0  0  0  0  0  0  0  0  0  0
    2.6599   -3.4578    0.0000 C   0  0  0  0  0  0  0  0  0  0  0  0
    0.0000   -1.1570    0.0000 O   0  5  0  0  0  0  0  0  0  0  0  0
  1  2  2  0  0  0  0
  2  3  1  0  0  0  0
  2 13  1  0  0  0  0
  3  4  2  0  0  0  0
  3 12  1  0  0  0  0
  4  5  1  0  0  0  0
  5  6  2  0  0  0  0
  5 10  1  0  0  0  0
  6  7  1  0  0  0  0
  7  8  2  0  0  0  0
  8  9  1  0  0  0  0
  9 10  2  0  0  0  0
 10 11  1  0  0  0  0
 11 12  2  0  0  0  0
M  END
>  <DSSTox_RID>
20984

>  <DSSTox_CID>
984

>  <DSSTox_Generic_SID>
20984

>  <DSSTox_FileID>
1029_CPDBAS_v5d

>  <STRUCTURE_Formula>
C9H6N2O2

>  <STRUCTURE_MolecularWeight>
174.1586

>  <STRUCTURE_ChemicalType>
defined organic

>  <STRUCTURE_TestedForm_DefinedOrganic>
parent

>  <STRUCTURE_Shown>
tested chemical

>  <TestSubstance_ChemicalName>
6-Nitroquinoline

>  <TestSubstance_CASRN>
613-50-3

>  <TestSubstance_Description>
single chemical compound

>  <STRUCTURE_ChemicalName_IUPAC>
6-nitroquinoline

>  <STRUCTURE_SMILES>
O=[N+](C1=CC2=CC=CN=C2C=C1)[O-]

>  <STRUCTURE_Parent_SMILES>
O=[N+](C1=CC2=CC=CN=C2C=C1)[O-]

>  <STRUCTURE_InChI>
InChI=1/C9H6N2O2/c12-11(13)8-3-4-9-7(6-8)2-1-5-10-9/h1-6H

>  <STRUCTURE_InChIKey>
SMHPLBXIVNQFBA-UHFFFAOYAQ

>  <StudyType>
Carcinogenicity

>  <Endpoint>
TD50; Tumor Target Sites

>  <Species>
rat

>  <ActivityOutcome_CPDBAS_Mutagenicity>
active

>  <ActivityScore_CPDBAS_Rat>
0

>  <TD50_Rat_Note>
no positive results

>  <TargetSites_Rat_Male>
no positive results

>  <TargetSites_Rat_Female>
no positive results

>  <ActivityOutcome_CPDBAS_Rat>
inactive

>  <ActivityOutcome_CPDBAS_SingleCellCall>
inactive

>  <ActivityOutcome_CPDBAS_MultiCellCall>
inactive

>  <ActivityOutcome_CPDBAS_MultiCellCall_Details>
multisex inactive

>  <ChemicalPage_URL>
http://potency.berkeley.edu/chempages/6-NITROQUINOLINE.html

$$$$



 13 14  0  0  0  0  0  0  0  0999 V2000
    2.3040    0.0000    0.0000 O   0  0  0  0  0  0  0  0  0  0  0  0
    3.4536   -0.6656    0.0000 N   0  3  0  0  0  0  0  0  0  0  0  0
    3.4536   -1.9968    0.0000 C   0  0  0  0  0  0  0  0  0  0  0  0
    4.6080   -2.6577    0.0000 C   0  0  0  0  0  0  0  0  0  0  0  0
    4.6080   -3.9889    0.0000 C   0  0  0  0  0  0  0  0  0  0  0  0
    3.4536   -4.6545    0.0000 C   0  0  0  0  0  0  0  0  0  0  0  0
    2.3040   -3.9889    0.0000 C   0  0  0  0  0  0  0  0  0  0  0  0
    1.1497   -4.6545    0.0000 C   0  0  0  0  0  0  0  0  0  0  0  0
    0.0000   -3.9889    0.0000 C   0  0  0  0  0  0  0  0  0  0  0  0
    0.0000   -2.6577    0.0000 C   0  0  0  0  0  0  0  0  0  0  0  0
    1.1497   -1.9968    0.0000 N   0  0  0  0  0  0  0  0  0  0  0  0
    2.3040   -2.6577    0.0000 C   0  0  0  0  0  0  0  0  0  0  0  0
    4.6080    0.0000    0.0000 O   0  5  0  0  0  0  0  0  0  0  0  0
  1  2  2  0  0  0  0
  2  3  1  0  0  0  0
  2 13  1  0  0  0  0
  3  4  2  0  0  0  0
  3 12  1  0  0  0  0
  4  5  1  0  0  0  0
  5  6  2  0  0  0  0
  6  7  1  0  0  0  0
  7  8  2  0  0  0  0
  7 12  1  0  0  0  0
  8  9  1  0  0  0  0
  9 10  2  0  0  0  0
 10 11  1  0  0  0  0
 11 12  2  0  0  0  0
M  END
>  <DSSTox_RID>
20985

>  <DSSTox_CID>
985

>  <DSSTox_Generic_SID>
20985

>  <DSSTox_FileID>
1030_CPDBAS_v5d

>  <STRUCTURE_Formula>
C9H6N2O2

>  <STRUCTURE_MolecularWeight>
174.1586

>  <STRUCTURE_ChemicalType>
defined organic

>  <STRUCTURE_TestedForm_DefinedOrganic>
parent

>  <STRUCTURE_Shown>
tested chemical

>  <TestSubstance_ChemicalName>
8-Nitroquinoline

>  <TestSubstance_CASRN>
607-35-2

>  <TestSubstance_Description>
single chemical compound

>  <STRUCTURE_ChemicalName_IUPAC>
8-nitroquinoline

>  <STRUCTURE_SMILES>
O=[N+](C1=CC=CC2=CC=CN=C12)[O-]

>  <STRUCTURE_Parent_SMILES>
O=[N+](C1=CC=CC2=CC=CN=C12)[O-]

>  <STRUCTURE_InChI>
InChI=1/C9H6N2O2/c12-11(13)8-5-1-3-7-4-2-6-10-9(7)8/h1-6H

>  <STRUCTURE_InChIKey>
OQHHSGRZCKGLCY-UHFFFAOYAK

>  <StudyType>
Carcinogenicity

>  <Endpoint>
TD50; Tumor Target Sites

>  <Species>
rat

>  <ActivityOutcome_CPDBAS_Mutagenicity>
active

>  <TD50_Rat_mg>
9.82

>  <TD50_Rat_mmol>
0.0564

>  <ActivityScore_CPDBAS_Rat>
39

>  <TD50_Rat_Note>
TD50 is harmonic mean of more than one positive test

>  <TargetSites_Rat_Male>
stomach

>  <TargetSites_Rat_Female>
stomach

>  <ActivityOutcome_CPDBAS_Rat>
active

>  <ActivityOutcome_CPDBAS_SingleCellCall>
active

>  <ActivityOutcome_CPDBAS_MultiCellCall>
active

>  <ActivityOutcome_CPDBAS_MultiCellCall_Details>
multisex active

>  <ChemicalPage_URL>
http://potency.berkeley.edu/chempages/8-NITROQUINOLINE.html

$$$$



 17 17  0  0  0  0  0  0  0  0999 V2000
    7.9835   -2.2992    0.0000 C   0  0  0  0  0  0  0  0  0  0  0  0
    7.3209   -1.1496    0.0000 C   0  0  0  0  0  0  0  0  0  0  0  0
    7.9835    0.0000    0.0000 C   0  0  0  0  0  0  0  0  0  0  0  0
    5.9876   -1.1496    0.0000 O   0  0  0  0  0  0  0  0  0  0  0  0
    5.3250   -2.2992    0.0000 C   0  0  0  0  0  0  0  0  0  0  0  0
    5.9876   -3.4569    0.0000 C   0  0  0  0  0  0  0  0  0  0  0  0
    5.3250   -4.6065    0.0000 C   0  0  0  0  0  0  0  0  0  0  0  0
    3.9917   -4.6065    0.0000 C   0  0  0  0  0  0  0  0  0  0  0  0
    3.3291   -3.4569    0.0000 C   0  0  0  0  0  0  0  0  0  0  0  0
    3.9917   -2.2992    0.0000 C   0  0  0  0  0  0  0  0  0  0  0  0
    3.3291   -1.1496    0.0000 O   0  0  0  0  0  0  0  0  0  0  0  0
    1.9959   -1.1496    0.0000 C   0  0  0  0  0  0  0  0  0  0  0  0
    1.3332    0.0000    0.0000 O   0  0  0  0  0  0  0  0  0  0  0  0
    1.3332   -2.2992    0.0000 N   0  0  0  0  0  0  0  0  0  0  0  0
    0.0000   -2.2992    0.0000 C   0  0  0  0  0  0  0  0  0  0  0  0
    1.9959   -3.4569    0.0000 N   0  0  0  0  0  0  0  0  0  0  0  0
    1.3332   -4.6065    0.0000 O   0  0  0  0  0  0  0  0  0  0  0  0
  1  2  1  0  0  0  0
  2  3  1  0  0  0  0
  2  4  1  0  0  0  0
  4  5  1  0  0  0  0
  5  6  2  0  0  0  0
  5 10  1  0  0  0  0
  6  7  1  0  0  0  0
  7  8  2  0  0  0  0
  8  9  1  0  0  0  0
  9 10  2  0  0  0  0
 10 11  1  0  0  0  0
 11 12  1  0  0  0  0
 12 13  2  0  0  0  0
 12 14  1  0  0  0  0
 14 15  1  0  0  0  0
 14 16  1  0  0  0  0
 16 17  2  0  0  0  0
M  END
>  <DSSTox_RID>
20986

>  <DSSTox_CID>
986

>  <DSSTox_Generic_SID>
20986

>  <DSSTox_FileID>
1031_CPDBAS_v5d

>  <STRUCTURE_Formula>
C11H14N2O4

>  <STRUCTURE_MolecularWeight>
238.2426

>  <STRUCTURE_ChemicalType>
defined organic

>  <STRUCTURE_TestedForm_DefinedOrganic>
parent

>  <STRUCTURE_Shown>
tested chemical

>  <TestSubstance_ChemicalName>
Nitroso-Baygon

>  <TestSubstance_CASRN>
38777-13-8

>  <TestSubstance_Description>
single chemical compound

>  <STRUCTURE_ChemicalName_IUPAC>
2-[(1-methylethyl)oxy]phenyl methyl(nitroso)carbamate

>  <STRUCTURE_SMILES>
CC(C)OC1=CC=CC=C1OC(=O)N(C)N=O

>  <STRUCTURE_Parent_SMILES>
CC(C)OC1=CC=CC=C1OC(=O)N(C)N=O

>  <STRUCTURE_InChI>
InChI=1/C11H14N2O4/c1-8(2)16-9-6-4-5-7-10(9)17-11(14)13(3)12-15/h4-8H,1-3H3

>  <STRUCTURE_InChIKey>
LYVDQJOFFUOJJT-UHFFFAOYAS

>  <StudyType>
Carcinogenicity

>  <Endpoint>
TD50; Tumor Target Sites

>  <Species>
rat

>  <ActivityOutcome_CPDBAS_Mutagenicity>
active

>  <TD50_Rat_mg>
0.364

>  <TD50_Rat_mmol>
0.00153

>  <ActivityScore_CPDBAS_Rat>
55

>  <TargetSites_Rat_Male>
stomach

>  <ActivityOutcome_CPDBAS_Rat>
active

>  <ActivityOutcome_CPDBAS_SingleCellCall>
active

>  <ChemicalPage_URL>
http://potency.berkeley.edu/chempages/NITROSO-BAYGON.html

$$$$



 17 16  0  0  0  0  0  0  0  0999 V2000
    5.1404   -3.6328    0.0000 N   0  0  0  0  0  0  0  0  0  0  0  0
    3.8108   -3.6328    0.0000 C   0  0  0  0  0  0  0  0  0  0  0  0
    3.1513   -2.4812    0.0000 C   0  0  0  0  0  0  0  0  0  0  0  0
    1.8217   -2.4812    0.0000 C   0  0  0  0  0  0  0  0  0  0  0  0
    1.1516   -3.6328    0.0000 C   0  0  0  0  0  0  0  0  0  0  0  0
    0.4921   -4.7845    0.0000 F   0  0  0  0  0  0  0  0  0  0  0  0
    0.0000   -2.9628    0.0000 F   0  0  0  0  0  0  0  0  0  0  0  0
    2.3032   -4.2924    0.0000 F   0  0  0  0  0  0  0  0  0  0  0  0
    5.8105   -2.4812    0.0000 C   0  0  0  0  0  0  0  0  0  0  0  0
    7.1401   -2.4812    0.0000 C   0  0  0  0  0  0  0  0  0  0  0  0
    7.8101   -1.3296    0.0000 C   0  0  0  0  0  0  0  0  0  0  0  0
    9.1397   -1.3296    0.0000 C   0  0  0  0  0  0  0  0  0  0  0  0
    9.1397    0.0000    0.0000 F   0  0  0  0  0  0  0  0  0  0  0  0
   10.4693   -1.3296    0.0000 F   0  0  0  0  0  0  0  0  0  0  0  0
    9.1397   -2.6592    0.0000 F   0  0  0  0  0  0  0  0  0  0  0  0
    5.8105   -4.7845    0.0000 N   0  0  0  0  0  0  0  0  0  0  0  0
    7.1401   -4.7845    0.0000 O   0  0  0  0  0  0  0  0  0  0  0  0
  1  2  1  0  0  0  0
  1  9  1  0  0  0  0
  1 16  1  0  0  0  0
  2  3  1  0  0  0  0
  3  4  1  0  0  0  0
  4  5  1  0  0  0  0
  5  6  1  0  0  0  0
  5  7  1  0  0  0  0
  5  8  1  0  0  0  0
  9 10  1  0  0  0  0
 10 11  1  0  0  0  0
 11 12  1  0  0  0  0
 12 13  1  0  0  0  0
 12 14  1  0  0  0  0
 12 15  1  0  0  0  0
 16 17  2  0  0  0  0
M  END
>  <DSSTox_RID>
20987

>  <DSSTox_CID>
987

>  <DSSTox_Generic_SID>
20987

>  <DSSTox_FileID>
1032_CPDBAS_v5d

>  <STRUCTURE_Formula>
C8H12F6N2O

>  <STRUCTURE_MolecularWeight>
266.186

>  <STRUCTURE_ChemicalType>
defined organic

>  <STRUCTURE_TestedForm_DefinedOrganic>
parent

>  <STRUCTURE_Shown>
tested chemical

>  <TestSubstance_ChemicalName>
N-Nitroso-bis-(4,4,4-trifluoro-N-butyl)amine

>  <TestSubstance_CASRN>
83335-32-4

>  <TestSubstance_Description>
single chemical compound

>  <STRUCTURE_ChemicalName_IUPAC>
4,4,4-trifluoro-N-nitroso-N-(4,4,4-trifluorobutyl)butan-1-amine

>  <STRUCTURE_SMILES>
N(CCCC(F)(F)F)(CCCC(F)(F)F)N=O

>  <STRUCTURE_Parent_SMILES>
N(CCCC(F)(F)F)(CCCC(F)(F)F)N=O

>  <STRUCTURE_InChI>
InChI=1/C8H12F6N2O/c9-7(10,11)3-1-5-16(15-17)6-2-4-8(12,13)14/h1-6H2

>  <STRUCTURE_InChIKey>
USZDDJLVNDSPSY-UHFFFAOYAS

>  <StudyType>
Carcinogenicity

>  <Endpoint>
TD50; Tumor Target Sites

>  <Species>
rat

>  <TD50_Rat_mg>
0.748

>  <TD50_Rat_mmol>
0.00281

>  <ActivityScore_CPDBAS_Rat>
52

>  <TD50_Rat_Note>
TD50 is harmonic mean of more than one positive test

>  <TargetSites_Rat_Male>
liver; lung

>  <TargetSites_Rat_Female>
liver; lung

>  <ActivityOutcome_CPDBAS_Rat>
active

>  <ActivityOutcome_CPDBAS_SingleCellCall>
active

>  <ActivityOutcome_CPDBAS_MultiCellCall>
active

>  <ActivityOutcome_CPDBAS_MultiCellCall_Details>
multisite active; multisex active

>  <ChemicalPage_URL>
http://potency.berkeley.edu/chempages/N-NITROSO-BIS-(4,4,4-TRIFLUORO-N-BUTYL)AMINE.html

$$$$



 11 11  0  0  0  0  0  0  0  0999 V2000
    2.3036    0.0000    0.0000 N   0  0  0  0  0  0  0  0  0  0  0  0
    3.4554   -0.6680    0.0000 C   0  0  0  0  0  0  0  0  0  0  0  0
    3.4554   -1.9984    0.0000 N   0  0  0  0  0  0  0  0  0  0  0  0
    2.3036   -2.6607    0.0000 C   0  0  0  0  0  0  0  0  0  0  0  0
    1.1518   -1.9984    0.0000 C   0  0  3  0  0  0  0  0  0  0  0  0
    1.1518   -0.6680    0.0000 C   0  0  0  0  0  0  0  0  0  0  0  0
    0.0000    0.0000    0.0000 O   0  0  0  0  0  0  0  0  0  0  0  0
    0.0000   -2.6607    0.0000 C   0  0  0  0  0  0  0  0  0  0  0  0
    4.6072   -2.6607    0.0000 N   0  0  0  0  0  0  0  0  0  0  0  0
    5.7591   -1.9984    0.0000 O   0  0  0  0  0  0  0  0  0  0  0  0
    4.6072    0.0000    0.0000 O   0  0  0  0  0  0  0  0  0  0  0  0
  1  2  1  0  0  0  0
  1  6  1  0  0  0  0
  2  3  1  0  0  0  0
  2 11  2  0  0  0  0
  3  4  1  0  0  0  0
  3  9  1  0  0  0  0
  4  5  1  0  0  0  0
  5  6  1  0  0  0  0
  5  8  1  0  0  0  0
  6  7  2  0  0  0  0
  9 10  2  0  0  0  0
M  END
>  <DSSTox_RID>
20988

>  <DSSTox_CID>
988

>  <DSSTox_Generic_SID>
20988

>  <DSSTox_FileID>
1033_CPDBAS_v5d

>  <STRUCTURE_Formula>
C5H7N3O3

>  <STRUCTURE_MolecularWeight>
157.1286

>  <STRUCTURE_ChemicalType>
defined organic

>  <STRUCTURE_TestedForm_DefinedOrganic>
parent

>  <STRUCTURE_Shown>
tested chemical

>  <TestSubstance_ChemicalName>
1-Nitroso-5,6-dihydrothymine

>  <TestSubstance_CASRN>
62641-67-2

>  <TestSubstance_Description>
single chemical compound

>  <STRUCTURE_ChemicalName_IUPAC>
5-methyl-1-nitrosodihydropyrimidine-2,4(1H,3H)-dione

>  <STRUCTURE_SMILES>
N1C(N(CC(C1=O)C)N=O)=O

>  <STRUCTURE_Parent_SMILES>
N1C(N(CC(C1=O)C)N=O)=O

>  <STRUCTURE_InChI>
InChI=1/C5H7N3O3/c1-3-2-8(7-11)5(10)6-4(3)9/h3H,2H2,1H3,(H,6,9,10)/f/h6H

>  <STRUCTURE_InChIKey>
VHNPZOQVSSWOJZ-BRMMOCHJCP

>  <StudyType>
Carcinogenicity

>  <Endpoint>
TD50; Tumor Target Sites

>  <Species>
rat

>  <ActivityOutcome_CPDBAS_Mutagenicity>
active

>  <ActivityScore_CPDBAS_Rat>
0

>  <TD50_Rat_Note>
no positive results

>  <TargetSites_Rat_Male>
no positive results

>  <TargetSites_Rat_Female>
no positive results

>  <ActivityOutcome_CPDBAS_Rat>
inactive

>  <ActivityOutcome_CPDBAS_SingleCellCall>
inactive

>  <ActivityOutcome_CPDBAS_MultiCellCall>
inactive

>  <ActivityOutcome_CPDBAS_MultiCellCall_Details>
multisex inactive

>  <ChemicalPage_URL>
http://potency.berkeley.edu/chempages/1-NITROSO-5,6-DIHYDROTHYMINE.html

$$$$



 10 10  0  0  0  0  0  0  0  0999 V2000
    5.9845   -3.4531    0.0000 O   0  0  0  0  0  0  0  0  0  0  0  0
    5.3203   -2.3040    0.0000 N   0  0  0  0  0  0  0  0  0  0  0  0
    3.9917   -2.3040    0.0000 N   0  0  0  0  0  0  0  0  0  0  0  0
    3.3274   -3.4531    0.0000 C   0  0  0  0  0  0  0  0  0  0  0  0
    1.9929   -3.4531    0.0000 C   0  0  0  0  0  0  0  0  0  0  0  0
    1.3286   -2.3040    0.0000 C   0  0  0  0  0  0  0  0  0  0  0  0
    0.0000   -2.3040    0.0000 O   0  0  0  0  0  0  0  0  0  0  0  0
    1.9929   -1.1490    0.0000 N   0  0  0  0  0  0  0  0  0  0  0  0
    3.3274   -1.1490    0.0000 C   0  0  0  0  0  0  0  0  0  0  0  0
    3.9917    0.0000    0.0000 O   0  0  0  0  0  0  0  0  0  0  0  0
  1  2  2  0  0  0  0
  2  3  1  0  0  0  0
  3  4  1  0  0  0  0
  3  9  1  0  0  0  0
  4  5  1  0  0  0  0
  5  6  1  0  0  0  0
  6  7  2  0  0  0  0
  6  8  1  0  0  0  0
  8  9  1  0  0  0  0
  9 10  2  0  0  0  0
M  END
>  <DSSTox_RID>
20989

>  <DSSTox_CID>
989

>  <DSSTox_Generic_SID>
20989

>  <DSSTox_FileID>
1034_CPDBAS_v5d

>  <STRUCTURE_Formula>
C4H5N3O3

>  <STRUCTURE_MolecularWeight>
143.1018

>  <STRUCTURE_ChemicalType>
defined organic

>  <STRUCTURE_TestedForm_DefinedOrganic>
parent

>  <STRUCTURE_Shown>
tested chemical

>  <TestSubstance_ChemicalName>
1-Nitroso-5,6-dihydrouracil

>  <TestSubstance_CASRN>
16813-36-8

>  <TestSubstance_Description>
single chemical compound

>  <STRUCTURE_ChemicalName_IUPAC>
1-nitrosodihydropyrimidine-2,4(1H,3H)-dione

>  <STRUCTURE_SMILES>
O=NN1CCC(=O)NC1=O

>  <STRUCTURE_Parent_SMILES>
O=NN1CCC(=O)NC1=O

>  <STRUCTURE_InChI>
InChI=1/C4H5N3O3/c8-3-1-2-7(6-10)4(9)5-3/h1-2H2,(H,5,8,9)/f/h5H

>  <STRUCTURE_InChIKey>
NTUQAPWIPIIWLT-JSWHHWTPCG

>  <StudyType>
Carcinogenicity

>  <Endpoint>
TD50; Tumor Target Sites

>  <Species>
rat

>  <ActivityOutcome_CPDBAS_Mutagenicity>
active

>  <TD50_Rat_mg>
0.0983

>  <TD50_Rat_mmol>
0.000687

>  <ActivityScore_CPDBAS_Rat>
58

>  <TD50_Rat_Note>
TD50 is harmonic mean of more than one positive test

>  <TargetSites_Rat_Male>
liver

>  <TargetSites_Rat_Female>
liver

>  <ActivityOutcome_CPDBAS_Rat>
active

>  <ActivityOutcome_CPDBAS_SingleCellCall>
active

>  <ActivityOutcome_CPDBAS_MultiCellCall>
active

>  <ActivityOutcome_CPDBAS_MultiCellCall_Details>
multisex active

>  <ChemicalPage_URL>
http://potency.berkeley.edu/chempages/1-NITROSO-5,6-DIHYDROURACIL.html

$$$$



 12 11  0  0  0  0  0  0  0  0999 V2000
    3.3277   -1.1482    0.0000 N   0  0  0  0  0  0  0  0  0  0  0  0
    3.9859   -2.3038    0.0000 C   0  0  0  0  0  0  0  0  0  0  0  0
    5.3169   -2.3038    0.0000 C   0  0  3  0  0  0  0  0  0  0  0  0
    5.9825   -1.1482    0.0000 C   0  0  0  0  0  0  0  0  0  0  0  0
    7.3135   -1.1482    0.0000 O   0  0  0  0  0  0  0  0  0  0  0  0
    5.9825   -3.4520    0.0000 O   0  0  0  0  0  0  0  0  0  0  0  0
    1.9966   -1.1482    0.0000 C   0  0  0  0  0  0  0  0  0  0  0  0
    1.3311   -2.3038    0.0000 C   0  0  3  0  0  0  0  0  0  0  0  0
    1.9966   -3.4520    0.0000 O   0  0  0  0  0  0  0  0  0  0  0  0
    0.0000   -2.3038    0.0000 C   0  0  0  0  0  0  0  0  0  0  0  0
    3.9859    0.0000    0.0000 N   0  0  0  0  0  0  0  0  0  0  0  0
    5.3169    0.0000    0.0000 O   0  0  0  0  0  0  0  0  0  0  0  0
  1  2  1  0  0  0  0
  1  7  1  0  0  0  0
  1 11  1  0  0  0  0
  2  3  1  0  0  0  0
  3  4  1  0  0  0  0
  3  6  1  0  0  0  0
  4  5  1  0  0  0  0
  7  8  1  0  0  0  0
  8  9  1  0  0  0  0
  8 10  1  0  0  0  0
 11 12  2  0  0  0  0
M  END
>  <DSSTox_RID>
20990

>  <DSSTox_CID>
990

>  <DSSTox_Generic_SID>
20990

>  <DSSTox_FileID>
1035_CPDBAS_v5d

>  <STRUCTURE_Formula>
C6H14N2O4

>  <STRUCTURE_MolecularWeight>
178.1876

>  <STRUCTURE_ChemicalType>
defined organic

>  <STRUCTURE_TestedForm_DefinedOrganic>
parent

>  <STRUCTURE_Shown>
tested chemical

>  <TestSubstance_ChemicalName>
N-Nitroso-2,3-dihydroxypropyl-2-hydroxypropylamine

>  <TestSubstance_CASRN>
89911-79-5

>  <TestSubstance_Description>
single chemical compound

>  <STRUCTURE_ChemicalName_IUPAC>
3-[(2-hydroxypropyl)(nitroso)amino]propane-1,2-diol

>  <STRUCTURE_SMILES>
N(CC(CO)O)(CC(O)C)N=O

>  <STRUCTURE_Parent_SMILES>
N(CC(CO)O)(CC(O)C)N=O

>  <STRUCTURE_InChI>
InChI=1/C6H14N2O4/c1-5(10)2-8(7-12)3-6(11)4-9/h5-6,9-11H,2-4H2,1H3

>  <STRUCTURE_InChIKey>
FKZLAQOTFPPENP-UHFFFAOYAC

>  <StudyType>
Carcinogenicity

>  <Endpoint>
TD50; Tumor Target Sites

>  <Species>
rat; hamster

>  <TD50_Rat_mg>
0.0535

>  <TD50_Rat_mmol>
0.0003

>  <ActivityScore_CPDBAS_Rat>
62

>  <TargetSites_Rat_Female>
esophagus; oral cavity; stomach

>  <ActivityOutcome_CPDBAS_Rat>
active

>  <TD50_Hamster_mg>
1.59

>  <TD50_Hamster_mmol>
0.00892

>  <ActivityScore_CPDBAS_Hamster>
75

>  <TargetSites_Hamster_Female>
stomach

>  <ActivityOutcome_CPDBAS_Hamster>
active

>  <ActivityOutcome_CPDBAS_SingleCellCall>
active

>  <ActivityOutcome_CPDBAS_MultiCellCall>
active

>  <ActivityOutcome_CPDBAS_MultiCellCall_Details>
multisite active; multispecies active

>  <ChemicalPage_URL>
http://potency.berkeley.edu/chempages/N-NITROSO-2,3-DIHYDROXYPROPYL-2-HYDROXYPROPYLAMINE.html

$$$$



 12 11  0  0  0  0  0  0  0  0999 V2000
    3.3277   -1.1482    0.0000 N   0  0  0  0  0  0  0  0  0  0  0  0
    3.9859   -2.3038    0.0000 C   0  0  0  0  0  0  0  0  0  0  0  0
    5.3169   -2.3038    0.0000 C   0  0  3  0  0  0  0  0  0  0  0  0
    5.9825   -1.1482    0.0000 C   0  0  0  0  0  0  0  0  0  0  0  0
    7.3135   -1.1482    0.0000 O   0  0  0  0  0  0  0  0  0  0  0  0
    5.9825   -3.4520    0.0000 O   0  0  0  0  0  0  0  0  0  0  0  0
    1.9966   -1.1482    0.0000 C   0  0  0  0  0  0  0  0  0  0  0  0
    1.3311   -2.3038    0.0000 C   0  0  0  0  0  0  0  0  0  0  0  0
    1.9966   -3.4520    0.0000 C   0  0  0  0  0  0  0  0  0  0  0  0
    0.0000   -2.3038    0.0000 O   0  0  0  0  0  0  0  0  0  0  0  0
    3.9859    0.0000    0.0000 N   0  0  0  0  0  0  0  0  0  0  0  0
    5.3169    0.0000    0.0000 O   0  0  0  0  0  0  0  0  0  0  0  0
  1  2  1  0  0  0  0
  1  7  1  0  0  0  0
  1 11  1  0  0  0  0
  2  3  1  0  0  0  0
  3  4  1  0  0  0  0
  3  6  1  0  0  0  0
  4  5  1  0  0  0  0
  7  8  1  0  0  0  0
  8  9  1  0  0  0  0
  8 10  2  0  0  0  0
 11 12  2  0  0  0  0
M  END
>  <DSSTox_RID>
20991

>  <DSSTox_CID>
991

>  <DSSTox_Generic_SID>
20991

>  <DSSTox_FileID>
1036_CPDBAS_v5d

>  <STRUCTURE_Formula>
C6H12N2O4

>  <STRUCTURE_MolecularWeight>
176.1718

>  <STRUCTURE_ChemicalType>
defined organic

>  <STRUCTURE_TestedForm_DefinedOrganic>
parent

>  <STRUCTURE_Shown>
tested chemical

>  <TestSubstance_ChemicalName>
Nitroso-2,3-dihydroxypropyl-2-oxopropylamine

>  <TestSubstance_CASRN>
92177-50-9

>  <TestSubstance_Description>
single chemical compound

>  <STRUCTURE_ChemicalName_IUPAC>
1-[(2,3-dihydroxypropyl)(nitroso)amino]propan-2-one

>  <STRUCTURE_SMILES>
N(CC(CO)O)(CC(C)=O)N=O

>  <STRUCTURE_Parent_SMILES>
N(CC(CO)O)(CC(C)=O)N=O

>  <STRUCTURE_InChI>
InChI=1/C6H12N2O4/c1-5(10)2-8(7-12)3-6(11)4-9/h6,9,11H,2-4H2,1H3

>  <STRUCTURE_InChIKey>
LUVOLNSYNLKFKR-UHFFFAOYAX

>  <StudyType>
Carcinogenicity

>  <Endpoint>
TD50; Tumor Target Sites

>  <Species>
rat; hamster

>  <TD50_Rat_mg>
0.0352

>  <TD50_Rat_mmol>
0.0002

>  <ActivityScore_CPDBAS_Rat>
64

>  <TargetSites_Rat_Female>
esophagus; oral cavity; stomach

>  <ActivityOutcome_CPDBAS_Rat>
active

>  <TD50_Hamster_mg>
0.754

>  <TD50_Hamster_mmol>
0.00428

>  <ActivityScore_CPDBAS_Hamster>
83

>  <TargetSites_Hamster_Female>
pancreas; stomach

>  <ActivityOutcome_CPDBAS_Hamster>
active

>  <ActivityOutcome_CPDBAS_SingleCellCall>
active

>  <ActivityOutcome_CPDBAS_MultiCellCall>
active

>  <ActivityOutcome_CPDBAS_MultiCellCall_Details>
multisite active; multispecies active

>  <ChemicalPage_URL>
http://potency.berkeley.edu/chempages/NITROSO-2,3-DIHYDROXYPROPYL-2-OXOPROPYLAMINE.html

$$$$



 11 10  0  0  0  0  0  0  0  0999 V2000
    3.9901   -2.3031    0.0000 N   0  0  0  0  0  0  0  0  0  0  0  0
    3.3261   -1.1486    0.0000 C   0  0  0  0  0  0  0  0  0  0  0  0
    1.9921   -1.1486    0.0000 C   0  0  3  0  0  0  0  0  0  0  0  0
    1.3280   -2.3031    0.0000 C   0  0  0  0  0  0  0  0  0  0  0  0
    0.0000   -2.3031    0.0000 O   0  0  0  0  0  0  0  0  0  0  0  0
    1.3280    0.0000    0.0000 O   0  0  0  0  0  0  0  0  0  0  0  0
    5.3182   -2.3031    0.0000 C   0  0  0  0  0  0  0  0  0  0  0  0
    5.9822   -1.1486    0.0000 C   0  0  0  0  0  0  0  0  0  0  0  0
    5.3182    0.0000    0.0000 O   0  0  0  0  0  0  0  0  0  0  0  0
    3.3261   -3.4517    0.0000 N   0  0  0  0  0  0  0  0  0  0  0  0
    1.9921   -3.4517    0.0000 O   0  0  0  0  0  0  0  0  0  0  0  0
  1  2  1  0  0  0  0
  1  7  1  0  0  0  0
  1 10  1  0  0  0  0
  2  3  1  0  0  0  0
  3  4  1  0  0  0  0
  3  6  1  0  0  0  0
  4  5  1  0  0  0  0
  7  8  1  0  0  0  0
  8  9  1  0  0  0  0
 10 11  2  0  0  0  0
M  END
>  <DSSTox_RID>
20992

>  <DSSTox_CID>
992

>  <DSSTox_Generic_SID>
20992

>  <DSSTox_FileID>
1037_CPDBAS_v5d

>  <STRUCTURE_Formula>
C5H12N2O4

>  <STRUCTURE_MolecularWeight>
164.1608

>  <STRUCTURE_ChemicalType>
defined organic

>  <STRUCTURE_TestedForm_DefinedOrganic>
parent

>  <STRUCTURE_Shown>
tested chemical

>  <TestSubstance_ChemicalName>
N-Nitroso-2,3-dihydroxypropylethanolamine

>  <TestSubstance_CASRN>
89911-78-4

>  <TestSubstance_Description>
single chemical compound

>  <STRUCTURE_ChemicalName_IUPAC>
3-[(2-hydroxyethyl)(nitroso)amino]propane-1,2-diol

>  <STRUCTURE_SMILES>
N(CC(CO)O)(CCO)N=O

>  <STRUCTURE_Parent_SMILES>
N(CC(CO)O)(CCO)N=O

>  <STRUCTURE_InChI>
InChI=1/C5H12N2O4/c8-2-1-7(6-11)3-5(10)4-9/h5,8-10H,1-4H2

>  <STRUCTURE_InChIKey>
ZRVIKNOBHVPYAM-UHFFFAOYAF

>  <StudyType>
Carcinogenicity

>  <Endpoint>
TD50; Tumor Target Sites

>  <Species>
rat; hamster

>  <TD50_Rat_mg>
5.98

>  <TD50_Rat_mmol>
0.0364

>  <ActivityScore_CPDBAS_Rat>
41

>  <TargetSites_Rat_Female>
liver

>  <ActivityOutcome_CPDBAS_Rat>
active

>  <ActivityScore_CPDBAS_Hamster>
0

>  <TD50_Hamster_Note>
no positive results

>  <TargetSites_Hamster_Female>
no positive results

>  <ActivityOutcome_CPDBAS_Hamster>
inactive

>  <ActivityOutcome_CPDBAS_SingleCellCall>
active

>  <ChemicalPage_URL>
http://potency.berkeley.edu/chempages/N-NITROSO-2,3-DIHYDROXYPROPYLETHANOLAMINE.html

$$$$



 18 19  0  0  0  0  0  0  0  0999 V2000
    6.9087   -3.3254    0.0000 N   0  0  0  0  0  0  0  0  0  0  0  0
    5.7572   -3.9886    0.0000 C   0  0  0  0  0  0  0  0  0  0  0  0
    4.6058   -3.3254    0.0000 C   0  0  3  0  0  0  0  0  0  0  0  0
    4.6058   -1.9897    0.0000 N   0  0  0  0  0  0  0  0  0  0  0  0
    5.7572   -1.3265    0.0000 C   0  0  3  0  0  0  0  0  0  0  0  0
    6.9087   -1.9897    0.0000 C   0  0  0  0  0  0  0  0  0  0  0  0
    5.7572    0.0000    0.0000 C   0  0  0  0  0  0  0  0  0  0  0  0
    3.4543   -1.3265    0.0000 C   0  0  0  0  0  0  0  0  0  0  0  0
    2.3029   -1.9897    0.0000 C   0  0  0  0  0  0  0  0  0  0  0  0
    2.3029   -3.3254    0.0000 C   0  0  0  0  0  0  0  0  0  0  0  0
    1.1514   -3.9886    0.0000 C   0  0  0  0  0  0  0  0  0  0  0  0
    0.0000   -3.3254    0.0000 C   0  0  0  0  0  0  0  0  0  0  0  0
    0.0000   -1.9897    0.0000 C   0  0  0  0  0  0  0  0  0  0  0  0
    1.1514   -1.3265    0.0000 C   0  0  0  0  0  0  0  0  0  0  0  0
    3.4543    0.0000    0.0000 O   0  0  0  0  0  0  0  0  0  0  0  0
    3.4543   -3.9886    0.0000 C   0  0  0  0  0  0  0  0  0  0  0  0
    8.0601   -3.9886    0.0000 N   0  0  0  0  0  0  0  0  0  0  0  0
    9.2116   -3.3254    0.0000 O   0  0  0  0  0  0  0  0  0  0  0  0
  1  2  1  0  0  0  0
  1  6  1  0  0  0  0
  1 17  1  0  0  0  0
  2  3  1  0  0  0  0
  3  4  1  0  0  0  0
  3 16  1  0  0  0  0
  4  5  1  0  0  0  0
  4  8  1  0  0  0  0
  5  6  1  0  0  0  0
  5  7  1  0  0  0  0
  8  9  1  0  0  0  0
  8 15  2  0  0  0  0
  9 10  1  0  0  0  0
  9 14  2  0  0  0  0
 10 11  2  0  0  0  0
 11 12  1  0  0  0  0
 12 13  2  0  0  0  0
 13 14  1  0  0  0  0
 17 18  2  0  0  0  0
M  END
>  <DSSTox_RID>
20993

>  <DSSTox_CID>
993

>  <DSSTox_Generic_SID>
20993

>  <DSSTox_FileID>
1038_CPDBAS_v5d

>  <STRUCTURE_Formula>
C13H17N3O2

>  <STRUCTURE_MolecularWeight>
247.2962

>  <STRUCTURE_ChemicalType>
defined organic

>  <STRUCTURE_TestedForm_DefinedOrganic>
parent

>  <STRUCTURE_Shown>
tested chemical

>  <TestSubstance_ChemicalName>
1-Nitroso-3,5-dimethyl-4-benzoylpiperazine

>  <TestSubstance_CASRN>
61034-40-0

>  <TestSubstance_Description>
single chemical compound

>  <STRUCTURE_ChemicalName_IUPAC>
2,6-dimethyl-4-nitroso-1-(phenylcarbonyl)piperazine

>  <STRUCTURE_SMILES>
N1(CC(N(C(C1)C)C(C2C=CC=CC=2)=O)C)N=O

>  <STRUCTURE_Parent_SMILES>
N1(CC(N(C(C1)C)C(C2C=CC=CC=2)=O)C)N=O

>  <STRUCTURE_InChI>
InChI=1/C13H17N3O2/c1-10-8-15(14-18)9-11(2)16(10)13(17)12-6-4-3-5-7-12/h3-7,10-11H,8-9H2,1-2H3

>  <STRUCTURE_InChIKey>
FDCJUXDANKKYRM-UHFFFAOYAW

>  <StudyType>
Carcinogenicity

>  <Endpoint>
TD50; Tumor Target Sites

>  <Species>
rat

>  <ActivityOutcome_CPDBAS_Mutagenicity>
inactive

>  <TD50_Rat_mg>
9.66

>  <TD50_Rat_mmol>
0.0391

>  <ActivityScore_CPDBAS_Rat>
40

>  <TargetSites_Rat_Female>
stomach

>  <ActivityOutcome_CPDBAS_Rat>
active

>  <ActivityOutcome_CPDBAS_SingleCellCall>
active

>  <ChemicalPage_URL>
http://potency.berkeley.edu/chempages/1-NITROSO-3,5-DIMETHYL-4-BENZOYLPIPERAZINE.html

$$$$



 12 11  0  0  0  0  0  0  0  0999 V2000
    3.9895   -4.6118    0.0000 O   0  0  0  0  0  0  0  0  0  0  0  0
    2.6620   -4.6118    0.0000 C   0  0  0  0  0  0  0  0  0  0  0  0
    1.9982   -5.7596    0.0000 N   0  0  0  0  0  0  0  0  0  0  0  0
    2.6620   -6.9143    0.0000 C   0  0  0  0  0  0  0  0  0  0  0  0
    3.9895   -6.9143    0.0000 C   0  0  0  0  0  0  0  0  0  0  0  0
    4.6602   -5.7596    0.0000 O   0  0  0  0  0  0  0  0  0  0  0  0
    0.6638   -5.7596    0.0000 N   0  0  0  0  0  0  0  0  0  0  0  0
    0.0000   -4.6118    0.0000 O   0  0  0  0  0  0  0  0  0  0  0  0
    1.9982   -3.4571    0.0000 N   0  0  0  0  0  0  0  0  0  0  0  0
    2.6620   -2.3025    0.0000 C   0  0  0  0  0  0  0  0  0  0  0  0
    1.9982   -1.1547    0.0000 C   0  0  0  0  0  0  0  0  0  0  0  0
    2.6620    0.0000    0.0000 Cl  0  0  0  0  0  0  0  0  0  0  0  0
  1  2  2  0  0  0  0
  2  3  1  0  0  0  0
  2  9  1  0  0  0  0
  3  4  1  0  0  0  0
  3  7  1  0  0  0  0
  4  5  1  0  0  0  0
  5  6  1  0  0  0  0
  7  8  2  0  0  0  0
  9 10  1  0  0  0  0
 10 11  1  0  0  0  0
 11 12  1  0  0  0  0
M  END
>  <DSSTox_RID>
20994

>  <DSSTox_CID>
994

>  <DSSTox_Generic_SID>
20994

>  <DSSTox_FileID>
1039_CPDBAS_v5d

>  <STRUCTURE_Formula>
C5H10ClN3O3

>  <STRUCTURE_MolecularWeight>
195.6053

>  <STRUCTURE_ChemicalType>
defined organic

>  <STRUCTURE_TestedForm_DefinedOrganic>
parent

>  <STRUCTURE_Shown>
tested chemical

>  <TestSubstance_ChemicalName>
1-Nitroso-1-hydroxyethyl-3-chloroethylurea

>  <TestSubstance_CASRN>
96806-34-7

>  <TestSubstance_Description>
single chemical compound

>  <STRUCTURE_ChemicalName_IUPAC>
3-(2-chloroethyl)-1-(2-hydroxyethyl)-1-nitrosourea

>  <STRUCTURE_SMILES>
O=C(N(CCO)N=O)NCCCl

>  <STRUCTURE_Parent_SMILES>
O=C(N(CCO)N=O)NCCCl

>  <STRUCTURE_InChI>
InChI=1/C5H10ClN3O3/c6-1-2-7-5(11)9(8-12)3-4-10/h10H,1-4H2,(H,7,11)/f/h7H

>  <STRUCTURE_InChIKey>
ZUXJWNFAYDAZJB-QDQILVOLCW

>  <StudyType>
Carcinogenicity

>  <Endpoint>
TD50; Tumor Target Sites

>  <Species>
rat

>  <TD50_Rat_mg>
0.356

>  <TD50_Rat_mmol>
0.00182

>  <ActivityScore_CPDBAS_Rat>
54

>  <TD50_Rat_Note>
TD50 is harmonic mean of more than one positive test

>  <TargetSites_Rat_Male>
kidney; liver

>  <TargetSites_Rat_Female>
kidney; liver

>  <ActivityOutcome_CPDBAS_Rat>
active

>  <ActivityOutcome_CPDBAS_SingleCellCall>
active

>  <ActivityOutcome_CPDBAS_MultiCellCall>
active

>  <ActivityOutcome_CPDBAS_MultiCellCall_Details>
multisite active; multisex active

>  <Note_CPDBAS>
listed v1a also as 1-(2-Hydroxyethyl)-nitroso-3-chloroethylurea; TD50_Rat modified v2a

>  <ChemicalPage_URL>
http://potency.berkeley.edu/chempages/1-NITROSO-1-HYDROXYETHYL-3-CHLOROETHYLUREA.html

$$$$



  9  9  0  0  0  0  0  0  0  0999 V2000
    2.3042    0.0000    0.0000 C   0  0  0  0  0  0  0  0  0  0  0  0
    3.4563   -0.6682    0.0000 C   0  0  0  0  0  0  0  0  0  0  0  0
    3.4563   -1.9989    0.0000 N   0  0  0  0  0  0  0  0  0  0  0  0
    2.3042   -2.6614    0.0000 C   0  0  0  0  0  0  0  0  0  0  0  0
    1.1521   -1.9989    0.0000 C   0  0  3  0  0  0  0  0  0  0  0  0
    1.1521   -0.6682    0.0000 O   0  0  0  0  0  0  0  0  0  0  0  0
    0.0000   -2.6614    0.0000 O   0  0  0  0  0  0  0  0  0  0  0  0
    4.6084   -2.6614    0.0000 N   0  0  0  0  0  0  0  0  0  0  0  0
    5.7605   -1.9989    0.0000 O   0  0  0  0  0  0  0  0  0  0  0  0
  1  2  1  0  0  0  0
  1  6  1  0  0  0  0
  2  3  1  0  0  0  0
  3  4  1  0  0  0  0
  3  8  1  0  0  0  0
  4  5  1  0  0  0  0
  5  6  1  0  0  0  0
  5  7  1  0  0  0  0
  8  9  2  0  0  0  0
M  END
>  <DSSTox_RID>
20995

>  <DSSTox_CID>
995

>  <DSSTox_Generic_SID>
20995

>  <DSSTox_FileID>
1040_CPDBAS_v5d

>  <STRUCTURE_Formula>
C4H8N2O3

>  <STRUCTURE_MolecularWeight>
132.1188

>  <STRUCTURE_ChemicalType>
defined organic

>  <STRUCTURE_TestedForm_DefinedOrganic>
parent

>  <STRUCTURE_Shown>
tested chemical

>  <TestSubstance_ChemicalName>
N-Nitroso-2-hydroxymorpholine

>  <TestSubstance_CASRN>
67587-52-4

>  <TestSubstance_Description>
single chemical compound

>  <STRUCTURE_ChemicalName_IUPAC>
4-nitrosomorpholin-2-ol

>  <STRUCTURE_SMILES>
C1CN(CC(O1)O)N=O

>  <STRUCTURE_Parent_SMILES>
C1CN(CC(O1)O)N=O

>  <STRUCTURE_InChI>
InChI=1/C4H8N2O3/c7-4-3-6(5-8)1-2-9-4/h4,7H,1-3H2

>  <STRUCTURE_InChIKey>
NIRHEGBBHNJANV-UHFFFAOYAV

>  <StudyType>
Carcinogenicity

>  <Endpoint>
TD50; Tumor Target Sites

>  <Species>
rat

>  <ActivityScore_CPDBAS_Rat>
0

>  <TD50_Rat_Note>
no positive results

>  <TargetSites_Rat_Female>
no positive results

>  <ActivityOutcome_CPDBAS_Rat>
inactive

>  <ActivityOutcome_CPDBAS_SingleCellCall>
inactive

>  <ChemicalPage_URL>
http://potency.berkeley.edu/chempages/N-NITROSO-2-HYDROXYMORPHOLINE.html

$$$$



 13 12  0  0  0  0  0  0  0  0999 V2000
    3.3259   -3.4535    0.0000 O   0  0  0  0  0  0  0  0  0  0  0  0
    3.9879   -2.2970    0.0000 C   0  0  0  0  0  0  0  0  0  0  0  0
    3.3259   -1.1485    0.0000 N   0  0  0  0  0  0  0  0  0  0  0  0
    1.9939   -1.1485    0.0000 C   0  0  0  0  0  0  0  0  0  0  0  0
    1.3320   -2.2970    0.0000 C   0  0  3  0  0  0  0  0  0  0  0  0
    1.9939   -3.4535    0.0000 C   0  0  0  0  0  0  0  0  0  0  0  0
    0.0000   -2.2970    0.0000 O   0  0  0  0  0  0  0  0  0  0  0  0
    3.9879    0.0000    0.0000 N   0  0  0  0  0  0  0  0  0  0  0  0
    5.3199    0.0000    0.0000 O   0  0  0  0  0  0  0  0  0  0  0  0
    5.3199   -2.2970    0.0000 N   0  0  0  0  0  0  0  0  0  0  0  0
    5.9818   -3.4535    0.0000 C   0  0  0  0  0  0  0  0  0  0  0  0
    7.3138   -3.4535    0.0000 C   0  0  0  0  0  0  0  0  0  0  0  0
    7.9758   -4.6020    0.0000 Cl  0  0  0  0  0  0  0  0  0  0  0  0
  1  2  2  0  0  0  0
  2  3  1  0  0  0  0
  2 10  1  0  0  0  0
  3  4  1  0  0  0  0
  3  8  1  0  0  0  0
  4  5  1  0  0  0  0
  5  6  1  0  0  0  0
  5  7  1  0  0  0  0
  8  9  2  0  0  0  0
 10 11  1  0  0  0  0
 11 12  1  0  0  0  0
 12 13  1  0  0  0  0
M  END
>  <DSSTox_RID>
20996

>  <DSSTox_CID>
996

>  <DSSTox_Generic_SID>
20996

>  <DSSTox_FileID>
1041_CPDBAS_v5d

>  <STRUCTURE_Formula>
C6H12ClN3O3

>  <STRUCTURE_MolecularWeight>
209.6321

>  <STRUCTURE_ChemicalType>
defined organic

>  <STRUCTURE_TestedForm_DefinedOrganic>
parent

>  <STRUCTURE_Shown>
tested chemical

>  <TestSubstance_ChemicalName>
1-Nitroso-1-(2-hydroxypropyl)-3-chloroethylurea

>  <TestSubstance_CASRN>
96806-35-8

>  <TestSubstance_Description>
single chemical compound

>  <STRUCTURE_ChemicalName_IUPAC>
3-(2-chloroethyl)-1-(2-hydroxypropyl)-1-nitrosourea

>  <STRUCTURE_SMILES>
O=C(N(CC(C)O)N=O)NCCCl

>  <STRUCTURE_Parent_SMILES>
O=C(N(CC(C)O)N=O)NCCCl

>  <STRUCTURE_InChI>
InChI=1/C6H12ClN3O3/c1-5(11)4-10(9-13)6(12)8-3-2-7/h5,11H,2-4H2,1H3,(H,8,12)/f/h8H

>  <STRUCTURE_InChIKey>
LSLCMDFPNJQMJN-FZOZFQFYCJ

>  <StudyType>
Carcinogenicity

>  <Endpoint>
TD50; Tumor Target Sites

>  <Species>
rat

>  <TD50_Rat_mg>
0.873

>  <TD50_Rat_mmol>
0.00416

>  <ActivityScore_CPDBAS_Rat>
50

>  <TD50_Rat_Note>
TD50 is harmonic mean of more than one positive test

>  <TargetSites_Rat_Male>
liver

>  <TargetSites_Rat_Female>
liver

>  <ActivityOutcome_CPDBAS_Rat>
active

>  <ActivityOutcome_CPDBAS_SingleCellCall>
active

>  <ActivityOutcome_CPDBAS_MultiCellCall>
active

>  <ActivityOutcome_CPDBAS_MultiCellCall_Details>
multisex active

>  <Note_CPDBAS>
listed v1a also as 1-(2-Hydroxypropyl)-nitroso-3-chloroethylurea

>  <ChemicalPage_URL>
http://potency.berkeley.edu/chempages/1-NITROSO-1-(2-HYDROXYPROPYL)-3-CHLOROETHYLUREA.html

$$$$



 10  9  0  0  0  0  0  0  0  0999 V2000
    1.9973   -3.4592    0.0000 N   0  0  0  0  0  0  0  0  0  0  0  0
    2.6584   -2.3046    0.0000 C   0  0  0  0  0  0  0  0  0  0  0  0
    1.9973   -1.1546    0.0000 C   0  0  3  0  0  0  0  0  0  0  0  0
    0.6658   -1.1546    0.0000 C   0  0  0  0  0  0  0  0  0  0  0  0
    2.6584    0.0000    0.0000 O   0  0  0  0  0  0  0  0  0  0  0  0
    2.6584   -4.6091    0.0000 C   0  0  0  0  0  0  0  0  0  0  0  0
    3.9899   -4.6091    0.0000 C   0  0  0  0  0  0  0  0  0  0  0  0
    4.6557   -3.4592    0.0000 O   0  0  0  0  0  0  0  0  0  0  0  0
    0.6658   -3.4592    0.0000 N   0  0  0  0  0  0  0  0  0  0  0  0
    0.0000   -2.3046    0.0000 O   0  0  0  0  0  0  0  0  0  0  0  0
  1  2  1  0  0  0  0
  1  6  1  0  0  0  0
  1  9  1  0  0  0  0
  2  3  1  0  0  0  0
  3  4  1  0  0  0  0
  3  5  1  0  0  0  0
  6  7  1  0  0  0  0
  7  8  1  0  0  0  0
  9 10  2  0  0  0  0
M  END
>  <DSSTox_RID>
20997

>  <DSSTox_CID>
997

>  <DSSTox_Generic_SID>
20997

>  <DSSTox_FileID>
1042_CPDBAS_v5d

>  <STRUCTURE_Formula>
C5H12N2O3

>  <STRUCTURE_MolecularWeight>
148.1614

>  <STRUCTURE_ChemicalType>
defined organic

>  <STRUCTURE_TestedForm_DefinedOrganic>
parent

>  <STRUCTURE_Shown>
tested chemical

>  <TestSubstance_ChemicalName>
N-Nitroso-(2-hydroxypropyl)-(2-hydroxyethyl)amine

>  <TestSubstance_CASRN>
75896-33-2

>  <TestSubstance_Description>
single chemical compound

>  <STRUCTURE_ChemicalName_IUPAC>
1-[(2-hydroxyethyl)(nitroso)amino]propan-2-ol

>  <STRUCTURE_SMILES>
N(CC(C)O)(CCO)N=O

>  <STRUCTURE_Parent_SMILES>
N(CC(C)O)(CCO)N=O

>  <STRUCTURE_InChI>
InChI=1/C5H12N2O3/c1-5(9)4-7(6-10)2-3-8/h5,8-9H,2-4H2,1H3

>  <STRUCTURE_InChIKey>
YXVJNOXXPKIWIM-UHFFFAOYAI

>  <StudyType>
Carcinogenicity

>  <Endpoint>
TD50; Tumor Target Sites

>  <Species>
rat

>  <TD50_Rat_mg>
1.02

>  <TD50_Rat_mmol>
0.00688

>  <ActivityScore_CPDBAS_Rat>
48

>  <TargetSites_Rat_Female>
esophagus; liver; vascular system

>  <ActivityOutcome_CPDBAS_Rat>
active

>  <ActivityOutcome_CPDBAS_SingleCellCall>
active

>  <ActivityOutcome_CPDBAS_MultiCellCall>
active

>  <ActivityOutcome_CPDBAS_MultiCellCall_Details>
multisite active

>  <ChemicalPage_URL>
http://potency.berkeley.edu/chempages/N-NITROSO-(2-HYDROXYPROPYL)-(2-HYDROXYETHYL)AMINE.html

$$$$



  8  8  0  0  0  0  0  0  0  0999 V2000
    1.3317   -1.0767    0.0000 C   0  0  3  0  0  0  0  0  0  0  0  0
    2.1137    0.0000    0.0000 C   0  0  0  0  0  0  0  0  0  0  0  0
    3.3774   -0.4080    0.0000 C   0  0  0  0  0  0  0  0  0  0  0  0
    3.3774   -1.7397    0.0000 N   0  0  0  0  0  0  0  0  0  0  0  0
    2.1137   -2.1534    0.0000 C   0  0  0  0  0  0  0  0  0  0  0  0
    4.4541   -2.5217    0.0000 N   0  0  0  0  0  0  0  0  0  0  0  0
    5.6668   -1.9834    0.0000 O   0  0  0  0  0  0  0  0  0  0  0  0
    0.0000   -1.0767    0.0000 O   0  0  0  0  0  0  0  0  0  0  0  0
  1  2  1  0  0  0  0
  1  5  1  0  0  0  0
  1  8  1  0  0  0  0
  2  3  1  0  0  0  0
  3  4  1  0  0  0  0
  4  5  1  0  0  0  0
  4  6  1  0  0  0  0
  6  7  2  0  0  0  0
M  END
>  <DSSTox_RID>
20998

>  <DSSTox_CID>
998

>  <DSSTox_Generic_SID>
20998

>  <DSSTox_FileID>
1043_CPDBAS_v5d

>  <STRUCTURE_Formula>
C4H8N2O2

>  <STRUCTURE_MolecularWeight>
116.1194

>  <STRUCTURE_ChemicalType>
defined organic

>  <STRUCTURE_TestedForm_DefinedOrganic>
parent

>  <STRUCTURE_Shown>
tested chemical

>  <TestSubstance_ChemicalName>
N-Nitroso-3-hydroxypyrrolidine

>  <TestSubstance_CASRN>
56222-35-6

>  <TestSubstance_Description>
single chemical compound

>  <STRUCTURE_ChemicalName_IUPAC>
1-nitrosopyrrolidin-3-ol

>  <STRUCTURE_SMILES>
C1(CCN(C1)N=O)O

>  <STRUCTURE_Parent_SMILES>
C1(CCN(C1)N=O)O

>  <STRUCTURE_InChI>
InChI=1/C4H8N2O2/c7-4-1-2-6(3-4)5-8/h4,7H,1-3H2

>  <STRUCTURE_InChIKey>
XDZKGLWJXJTZJZ-UHFFFAOYAU

>  <StudyType>
Carcinogenicity

>  <Endpoint>
TD50; Tumor Target Sites

>  <Species>
rat

>  <ActivityOutcome_CPDBAS_Mutagenicity>
active

>  <TD50_Rat_mg>
7.65

>  <TD50_Rat_mmol>
0.0659

>  <ActivityScore_CPDBAS_Rat>
38

>  <TargetSites_Rat_BothSexes>
all tumor bearing animals

>  <ActivityOutcome_CPDBAS_Rat>
active

>  <ActivityOutcome_CPDBAS_SingleCellCall>
active

>  <ChemicalPage_URL>
http://potency.berkeley.edu/chempages/N-NITROSO-3-HYDROXYPYRROLIDINE.html

$$$$



 10  9  0  0  0  0  0  0  0  0999 V2000
    1.1521    0.0000    0.0000 O   0  0  0  0  0  0  0  0  0  0  0  0
    2.3042   -0.6682    0.0000 C   0  0  0  0  0  0  0  0  0  0  0  0
    2.3042   -1.9989    0.0000 N   0  0  0  0  0  0  0  0  0  0  0  0
    3.4563   -2.6614    0.0000 C   0  0  0  0  0  0  0  0  0  0  0  0
    4.6084   -1.9989    0.0000 C   0  0  0  0  0  0  0  0  0  0  0  0
    4.6084   -0.6682    0.0000 C   0  0  0  0  0  0  0  0  0  0  0  0
    5.7605   -2.6614    0.0000 C   0  0  0  0  0  0  0  0  0  0  0  0
    1.1521   -2.6614    0.0000 N   0  0  0  0  0  0  0  0  0  0  0  0
    0.0000   -1.9989    0.0000 O   0  0  0  0  0  0  0  0  0  0  0  0
    3.4563    0.0000    0.0000 N   0  0  0  0  0  0  0  0  0  0  0  0
  1  2  2  0  0  0  0
  2  3  1  0  0  0  0
  2 10  1  0  0  0  0
  3  4  1  0  0  0  0
  3  8  1  0  0  0  0
  4  5  1  0  0  0  0
  5  6  1  0  0  0  0
  5  7  1  0  0  0  0
  8  9  2  0  0  0  0
M  END
>  <DSSTox_RID>
20999

>  <DSSTox_CID>
999

>  <DSSTox_Generic_SID>
20999

>  <DSSTox_FileID>
1044_CPDBAS_v5d

>  <STRUCTURE_Formula>
C5H11N3O2

>  <STRUCTURE_MolecularWeight>
145.1608

>  <STRUCTURE_ChemicalType>
defined organic

>  <STRUCTURE_TestedForm_DefinedOrganic>
parent

>  <STRUCTURE_Shown>
tested chemical

>  <TestSubstance_ChemicalName>
N-Nitroso-N-isobutylurea

>  <TestSubstance_CASRN>
760-60-1

>  <TestSubstance_Description>
single chemical compound

>  <STRUCTURE_ChemicalName_IUPAC>
1-(2-methylpropyl)-1-nitrosourea

>  <STRUCTURE_SMILES>
O=C(N(CC(C)C)N=O)N

>  <STRUCTURE_Parent_SMILES>
O=C(N(CC(C)C)N=O)N

>  <STRUCTURE_InChI>
InChI=1/C5H11N3O2/c1-4(2)3-8(7-10)5(6)9/h4H,3H2,1-2H3,(H2,6,9)/f/h6H2

>  <STRUCTURE_InChIKey>
SRSYSQPJIQFKKN-MDVJYLRGCP

>  <StudyType>
Carcinogenicity

>  <Endpoint>
TD50; Tumor Target Sites

>  <Species>
rat

>  <TD50_Rat_mg>
4.73

>  <TD50_Rat_mmol>
0.0326

>  <ActivityScore_CPDBAS_Rat>
41

>  <TargetSites_Rat_Female>
small intestine

>  <ActivityOutcome_CPDBAS_Rat>
active

>  <ActivityOutcome_CPDBAS_SingleCellCall>
active

>  <ChemicalPage_URL>
http://potency.berkeley.edu/chempages/N-NITROSO-N-ISOBUTYLUREA.html

$$$$



 16 15  0  0  0  0  0  0  0  0999 V2000
    0.0000   -1.3396    0.0000 O   0  0  0  0  0  0  0  0  0  0  0  0
    1.1460   -2.0014    0.0000 N   0  0  0  0  0  0  0  0  0  0  0  0
    2.3081   -1.3396    0.0000 N   0  0  0  0  0  0  0  0  0  0  0  0
    2.3081    0.0000    0.0000 C   0  0  0  0  0  0  0  0  0  0  0  0
    3.4540   -2.0014    0.0000 C   0  0  0  0  0  0  0  0  0  0  0  0
    4.6161   -1.3396    0.0000 C   0  0  0  0  0  0  0  0  0  0  0  0
    5.7621   -2.0014    0.0000 C   0  0  0  0  0  0  0  0  0  0  0  0
    6.9242   -1.3396    0.0000 C   0  0  0  0  0  0  0  0  0  0  0  0
    8.0702   -2.0014    0.0000 C   0  0  0  0  0  0  0  0  0  0  0  0
    9.2161   -1.3396    0.0000 C   0  0  0  0  0  0  0  0  0  0  0  0
   10.3782   -2.0014    0.0000 C   0  0  0  0  0  0  0  0  0  0  0  0
   11.5242   -1.3396    0.0000 C   0  0  0  0  0  0  0  0  0  0  0  0
   12.6863   -2.0014    0.0000 C   0  0  0  0  0  0  0  0  0  0  0  0
   13.8323   -1.3396    0.0000 C   0  0  0  0  0  0  0  0  0  0  0  0
   14.9944   -2.0014    0.0000 C   0  0  0  0  0  0  0  0  0  0  0  0
   16.1403   -1.3396    0.0000 C   0  0  0  0  0  0  0  0  0  0  0  0
  1  2  2  0  0  0  0
  2  3  1  0  0  0  0
  3  4  1  0  0  0  0
  3  5  1  0  0  0  0
  5  6  1  0  0  0  0
  6  7  1  0  0  0  0
  7  8  1  0  0  0  0
  8  9  1  0  0  0  0
  9 10  1  0  0  0  0
 10 11  1  0  0  0  0
 11 12  1  0  0  0  0
 12 13  1  0  0  0  0
 13 14  1  0  0  0  0
 14 15  1  0  0  0  0
 15 16  1  0  0  0  0
M  END
>  <DSSTox_RID>
21000

>  <DSSTox_CID>
1000

>  <DSSTox_Generic_SID>
21000

>  <DSSTox_FileID>
1045_CPDBAS_v5d

>  <STRUCTURE_Formula>
C13H28N2O

>  <STRUCTURE_MolecularWeight>
228.377

>  <STRUCTURE_ChemicalType>
defined organic

>  <STRUCTURE_TestedForm_DefinedOrganic>
parent

>  <STRUCTURE_Shown>
tested chemical

>  <TestSubstance_ChemicalName>
N-Nitroso-N-methyl-N-dodecylamine

>  <TestSubstance_CASRN>
55090-44-3

>  <TestSubstance_Description>
single chemical compound

>  <STRUCTURE_ChemicalName_IUPAC>
N-methyl-N-nitrosododecan-1-amine

>  <STRUCTURE_SMILES>
O=NN(C)CCCCCCCCCCCC

>  <STRUCTURE_Parent_SMILES>
O=NN(C)CCCCCCCCCCCC

>  <STRUCTURE_InChI>
InChI=1/C13H28N2O/c1-3-4-5-6-7-8-9-10-11-12-13-15(2)14-16/h3-13H2,1-2H3

>  <STRUCTURE_InChIKey>
QPUKANZXOGADOB-UHFFFAOYAB

>  <StudyType>
Carcinogenicity

>  <Endpoint>
TD50; Tumor Target Sites

>  <Species>
rat

>  <ActivityOutcome_CPDBAS_Mutagenicity>
active

>  <TD50_Rat_mg>
0.537

>  <TD50_Rat_mmol>
0.00235

>  <ActivityScore_CPDBAS_Rat>
53

>  <TD50_Rat_Note>
TD50 is harmonic mean of more than one positive test; harmonic mean of TD50 includes a value for upper 99% confidence limit from study with 100% tumor incidence but no lifetable

>  <TargetSites_Rat_Male>
liver; lung; stomach; urinary bladder

>  <TargetSites_Rat_Female>
urinary bladder

>  <ActivityOutcome_CPDBAS_Rat>
active

>  <ActivityOutcome_CPDBAS_SingleCellCall>
active

>  <ActivityOutcome_CPDBAS_MultiCellCall>
active

>  <ActivityOutcome_CPDBAS_MultiCellCall_Details>
multisite active; multisex active

>  <Note_CPDBAS>
TD50_Rat_Note modified v5a

>  <ChemicalPage_URL>
http://potency.berkeley.edu/chempages/N-NITROSO-N-METHYL-N-DODECYLAMINE.html

$$$$



 11 11  0  0  0  0  0  0  0  0999 V2000
    3.9859    0.0000    0.0000 C   0  0  0  0  0  0  0  0  0  0  0  0
    5.3169    0.0000    0.0000 C   0  0  0  0  0  0  0  0  0  0  0  0
    5.9825   -1.1555    0.0000 C   0  0  0  0  0  0  0  0  0  0  0  0
    5.3169   -2.3038    0.0000 C   0  0  0  0  0  0  0  0  0  0  0  0
    3.9859   -2.3038    0.0000 C   0  0  0  0  0  0  0  0  0  0  0  0
    3.3277   -1.1555    0.0000 C   0  0  0  0  0  0  0  0  0  0  0  0
    1.9966   -1.1555    0.0000 N   0  0  0  0  0  0  0  0  0  0  0  0
    1.3311   -2.3038    0.0000 N   0  0  0  0  0  0  0  0  0  0  0  0
    0.0000   -2.3038    0.0000 O   0  0  0  0  0  0  0  0  0  0  0  0
    1.3311    0.0000    0.0000 C   0  0  0  0  0  0  0  0  0  0  0  0
    7.3135   -1.1555    0.0000 F   0  0  0  0  0  0  0  0  0  0  0  0
  1  2  2  0  0  0  0
  1  6  1  0  0  0  0
  2  3  1  0  0  0  0
  3  4  2  0  0  0  0
  3 11  1  0  0  0  0
  4  5  1  0  0  0  0
  5  6  2  0  0  0  0
  6  7  1  0  0  0  0
  7  8  1  0  0  0  0
  7 10  1  0  0  0  0
  8  9  2  0  0  0  0
M  END
>  <DSSTox_RID>
21001

>  <DSSTox_CID>
1001

>  <DSSTox_Generic_SID>
21001

>  <DSSTox_FileID>
1046_CPDBAS_v5d

>  <STRUCTURE_Formula>
C7H7FN2O

>  <STRUCTURE_MolecularWeight>
154.1435

>  <STRUCTURE_ChemicalType>
defined organic

>  <STRUCTURE_TestedForm_DefinedOrganic>
parent

>  <STRUCTURE_Shown>
tested chemical

>  <TestSubstance_ChemicalName>
N-Nitroso-N-methyl-4-fluoroaniline

>  <TestSubstance_CASRN>
937-25-7

>  <TestSubstance_Description>
single chemical compound

>  <STRUCTURE_ChemicalName_IUPAC>
4-fluoro-N-methyl-N-nitrosoaniline

>  <STRUCTURE_SMILES>
C1=CC(=CC=C1N(N=O)C)F

>  <STRUCTURE_Parent_SMILES>
C1=CC(=CC=C1N(N=O)C)F

>  <STRUCTURE_InChI>
InChI=1/C7H7FN2O/c1-10(9-11)7-4-2-6(8)3-5-7/h2-5H,1H3

>  <STRUCTURE_InChIKey>
GFIXPWIVPHYTAJ-UHFFFAOYAD

>  <StudyType>
Carcinogenicity

>  <Endpoint>
TD50; Tumor Target Sites

>  <Species>
rat

>  <TD50_Rat_mg>
0.255

>  <TD50_Rat_mmol>
0.00165

>  <ActivityScore_CPDBAS_Rat>
54

>  <TargetSites_Rat_Male>
esophagus

>  <ActivityOutcome_CPDBAS_Rat>
active

>  <ActivityOutcome_CPDBAS_SingleCellCall>
active

>  <ChemicalPage_URL>
http://potency.berkeley.edu/chempages/N-NITROSO-N-METHYL-4-FLUOROANILINE.html

$$$$



 13 13  0  0  0  0  0  0  0  0999 V2000
    1.3318    0.0000    0.0000 C   0  0  0  0  0  0  0  0  0  0  0  0
    1.9937   -1.1563    0.0000 N   0  0  0  0  0  0  0  0  0  0  0  0
    1.3318   -2.3047    0.0000 N   0  0  0  0  0  0  0  0  0  0  0  0
    0.0000   -2.3047    0.0000 O   0  0  0  0  0  0  0  0  0  0  0  0
    3.3254   -1.1563    0.0000 C   0  0  0  0  0  0  0  0  0  0  0  0
    3.9873    0.0000    0.0000 C   0  0  0  0  0  0  0  0  0  0  0  0
    5.3191    0.0000    0.0000 C   0  0  0  0  0  0  0  0  0  0  0  0
    5.9810   -1.1563    0.0000 C   0  0  0  0  0  0  0  0  0  0  0  0
    5.3191   -2.3047    0.0000 C   0  0  0  0  0  0  0  0  0  0  0  0
    3.9873   -2.3047    0.0000 C   0  0  0  0  0  0  0  0  0  0  0  0
    7.3127   -1.1563    0.0000 N   0  3  0  0  0  0  0  0  0  0  0  0
    7.9746    0.0000    0.0000 O   0  5  0  0  0  0  0  0  0  0  0  0
    7.9746   -2.3047    0.0000 O   0  0  0  0  0  0  0  0  0  0  0  0
  1  2  1  0  0  0  0
  2  3  1  0  0  0  0
  2  5  1  0  0  0  0
  3  4  2  0  0  0  0
  5  6  2  0  0  0  0
  5 10  1  0  0  0  0
  6  7  1  0  0  0  0
  7  8  2  0  0  0  0
  8  9  1  0  0  0  0
  8 11  1  0  0  0  0
  9 10  2  0  0  0  0
 11 12  1  0  0  0  0
 11 13  2  0  0  0  0
M  END
>  <DSSTox_RID>
21002

>  <DSSTox_CID>
1002

>  <DSSTox_Generic_SID>
21002

>  <DSSTox_FileID>
1047_CPDBAS_v5d

>  <STRUCTURE_Formula>
C7H7N3O3

>  <STRUCTURE_MolecularWeight>
181.1506

>  <STRUCTURE_ChemicalType>
defined organic

>  <STRUCTURE_TestedForm_DefinedOrganic>
parent

>  <STRUCTURE_Shown>
tested chemical

>  <TestSubstance_ChemicalName>
N-Nitroso-N-methyl-4-nitroaniline

>  <TestSubstance_CASRN>
943-41-9

>  <TestSubstance_Description>
single chemical compound

>  <STRUCTURE_ChemicalName_IUPAC>
N-methyl-4-nitro-N-nitrosoaniline

>  <STRUCTURE_SMILES>
CN(N=O)C1=CC=C(C=C1)[N+]([O-])=O

>  <STRUCTURE_Parent_SMILES>
CN(N=O)C1=CC=C(C=C1)[N+]([O-])=O

>  <STRUCTURE_InChI>
InChI=1/C7H7N3O3/c1-9(8-11)6-2-4-7(5-3-6)10(12)13/h2-5H,1H3

>  <STRUCTURE_InChIKey>
AMTRFSFECFPSHF-UHFFFAOYAZ

>  <StudyType>
Carcinogenicity

>  <Endpoint>
TD50; Tumor Target Sites

>  <Species>
rat

>  <ActivityScore_CPDBAS_Rat>
0

>  <TD50_Rat_Note>
no positive results

>  <TargetSites_Rat_Male>
no positive results

>  <ActivityOutcome_CPDBAS_Rat>
inactive

>  <ActivityOutcome_CPDBAS_SingleCellCall>
inactive

>  <ChemicalPage_URL>
http://potency.berkeley.edu/chempages/N-NITROSO-N-METHYL-4-NITROANILINE.html

$$$$



 12 12  0  0  0  0  0  0  0  0999 V2000
    7.3106   -1.1480    0.0000 C   0  0  0  0  0  0  0  0  0  0  0  0
    7.9723   -2.3040    0.0000 C   0  0  0  0  0  0  0  0  0  0  0  0
    7.3106   -3.4520    0.0000 C   0  0  0  0  0  0  0  0  0  0  0  0
    5.9793   -3.4520    0.0000 C   0  0  0  0  0  0  0  0  0  0  0  0
    5.3175   -2.3040    0.0000 C   0  0  0  0  0  0  0  0  0  0  0  0
    5.9793   -1.1480    0.0000 C   0  0  0  0  0  0  0  0  0  0  0  0
    3.9862   -2.3040    0.0000 C   0  0  0  0  0  0  0  0  0  0  0  0
    3.3245   -1.1480    0.0000 C   0  0  0  0  0  0  0  0  0  0  0  0
    1.9931   -1.1480    0.0000 N   0  0  0  0  0  0  0  0  0  0  0  0
    1.3314    0.0000    0.0000 C   0  0  0  0  0  0  0  0  0  0  0  0
    1.3314   -2.3040    0.0000 N   0  0  0  0  0  0  0  0  0  0  0  0
    0.0000   -2.3040    0.0000 O   0  0  0  0  0  0  0  0  0  0  0  0
  1  2  2  0  0  0  0
  1  6  1  0  0  0  0
  2  3  1  0  0  0  0
  3  4  2  0  0  0  0
  4  5  1  0  0  0  0
  5  6  2  0  0  0  0
  5  7  1  0  0  0  0
  7  8  1  0  0  0  0
  8  9  1  0  0  0  0
  9 10  1  0  0  0  0
  9 11  1  0  0  0  0
 11 12  2  0  0  0  0
M  END
>  <DSSTox_RID>
21003

>  <DSSTox_CID>
1003

>  <DSSTox_Generic_SID>
21003

>  <DSSTox_FileID>
1048_CPDBAS_v5d

>  <STRUCTURE_Formula>
C9H12N2O

>  <STRUCTURE_MolecularWeight>
164.2066

>  <STRUCTURE_ChemicalType>
defined organic

>  <STRUCTURE_TestedForm_DefinedOrganic>
parent

>  <STRUCTURE_Shown>
tested chemical

>  <TestSubstance_ChemicalName>
Nitroso-N-methyl-N-(2-phenyl)ethylamine

>  <TestSubstance_CASRN>
13256-11-6

>  <TestSubstance_Description>
single chemical compound

>  <STRUCTURE_ChemicalName_IUPAC>
N-methyl-N-nitroso-2-phenylethanamine

>  <STRUCTURE_SMILES>
C1=CC=CC(=C1)CCN(C)N=O

>  <STRUCTURE_Parent_SMILES>
C1=CC=CC(=C1)CCN(C)N=O

>  <STRUCTURE_InChI>
InChI=1/C9H12N2O/c1-11(10-12)8-7-9-5-3-2-4-6-9/h2-6H,7-8H2,1H3

>  <STRUCTURE_InChIKey>
AVESHLVLHJKUKQ-UHFFFAOYAS

>  <StudyType>
Carcinogenicity

>  <Endpoint>
TD50; Tumor Target Sites

>  <Species>
rat

>  <ActivityOutcome_CPDBAS_Mutagenicity>
active

>  <TD50_Rat_mg>
0.00998

>  <TD50_Rat_mmol>
0.0000608

>  <ActivityScore_CPDBAS_Rat>
69

>  <TD50_Rat_Note>
TD50 is harmonic mean of more than one positive test

>  <TargetSites_Rat_Male>
esophagus; oral cavity; stomach

>  <ActivityOutcome_CPDBAS_Rat>
active

>  <ActivityOutcome_CPDBAS_SingleCellCall>
active

>  <ActivityOutcome_CPDBAS_MultiCellCall>
active

>  <ActivityOutcome_CPDBAS_MultiCellCall_Details>
multisite active

>  <Note_CPDBAS>
TargetSites_Rat modifed v3a

>  <ChemicalPage_URL>
http://potency.berkeley.edu/chempages/NITROSO-N-METHYL-N-(2-PHENYL)ETHYLAMINE.html

$$$$



 18 17  0  0  0  0  0  0  0  0999 V2000
    2.3052   -1.3278    0.0000 N   0  0  0  0  0  0  0  0  0  0  0  0
    3.4670   -1.9917    0.0000 C   0  0  0  0  0  0  0  0  0  0  0  0
    4.6104   -1.3278    0.0000 C   0  0  0  0  0  0  0  0  0  0  0  0
    5.7538   -1.9917    0.0000 C   0  0  0  0  0  0  0  0  0  0  0  0
    6.9156   -1.3278    0.0000 C   0  0  0  0  0  0  0  0  0  0  0  0
    8.0774   -1.9917    0.0000 C   0  0  0  0  0  0  0  0  0  0  0  0
    9.2208   -1.3278    0.0000 C   0  0  0  0  0  0  0  0  0  0  0  0
   10.3642   -1.9917    0.0000 C   0  0  0  0  0  0  0  0  0  0  0  0
   11.5260   -1.3278    0.0000 C   0  0  0  0  0  0  0  0  0  0  0  0
   12.6878   -1.9917    0.0000 C   0  0  0  0  0  0  0  0  0  0  0  0
   13.8312   -1.3278    0.0000 C   0  0  0  0  0  0  0  0  0  0  0  0
   14.9746   -1.9917    0.0000 C   0  0  0  0  0  0  0  0  0  0  0  0
   16.1364   -1.3278    0.0000 C   0  0  0  0  0  0  0  0  0  0  0  0
   17.2798   -1.9917    0.0000 C   0  0  0  0  0  0  0  0  0  0  0  0
   18.4416   -1.3278    0.0000 C   0  0  0  0  0  0  0  0  0  0  0  0
    2.3052    0.0000    0.0000 C   0  0  0  0  0  0  0  0  0  0  0  0
    1.1434   -1.9917    0.0000 N   0  0  0  0  0  0  0  0  0  0  0  0
    0.0000   -1.3278    0.0000 O   0  0  0  0  0  0  0  0  0  0  0  0
  1  2  1  0  0  0  0
  1 16  1  0  0  0  0
  1 17  1  0  0  0  0
  2  3  1  0  0  0  0
  3  4  1  0  0  0  0
  4  5  1  0  0  0  0
  5  6  1  0  0  0  0
  6  7  1  0  0  0  0
  7  8  1  0  0  0  0
  8  9  1  0  0  0  0
  9 10  1  0  0  0  0
 10 11  1  0  0  0  0
 11 12  1  0  0  0  0
 12 13  1  0  0  0  0
 13 14  1  0  0  0  0
 14 15  1  0  0  0  0
 17 18  2  0  0  0  0
M  END
>  <DSSTox_RID>
21004

>  <DSSTox_CID>
1004

>  <DSSTox_Generic_SID>
21004

>  <DSSTox_FileID>
1049_CPDBAS_v5d

>  <STRUCTURE_Formula>
C15H32N2O

>  <STRUCTURE_MolecularWeight>
256.4306

>  <STRUCTURE_ChemicalType>
defined organic

>  <STRUCTURE_TestedForm_DefinedOrganic>
parent

>  <STRUCTURE_Shown>
tested chemical

>  <TestSubstance_ChemicalName>
N-Nitroso-N-methyl-N-tetradecylamine

>  <TestSubstance_CASRN>
75881-20-8

>  <TestSubstance_Description>
single chemical compound

>  <STRUCTURE_ChemicalName_IUPAC>
N-methyl-N-nitrosotetradecan-1-amine

>  <STRUCTURE_SMILES>
N(CCCCCCCCCCCCCC)(C)N=O

>  <STRUCTURE_Parent_SMILES>
N(CCCCCCCCCCCCCC)(C)N=O

>  <STRUCTURE_InChI>
InChI=1/C15H32N2O/c1-3-4-5-6-7-8-9-10-11-12-13-14-15-17(2)16-18/h3-15H2,1-2H3

>  <STRUCTURE_InChIKey>
CCTMZRHJDTTZRF-UHFFFAOYAE

>  <StudyType>
Carcinogenicity

>  <Endpoint>
TD50; Tumor Target Sites

>  <Species>
rat

>  <TD50_Rat_mg>
1.65

>  <TD50_Rat_mmol>
0.00643

>  <ActivityScore_CPDBAS_Rat>
48

>  <TD50_Rat_Note>
harmonic mean of TD50 includes a value for upper 99% confidence limit from study with 100% tumor incidence but no lifetable

>  <TargetSites_Rat_Male>
lung; urinary bladder

>  <ActivityOutcome_CPDBAS_Rat>
active

>  <ActivityOutcome_CPDBAS_SingleCellCall>
active

>  <ActivityOutcome_CPDBAS_MultiCellCall>
active

>  <ActivityOutcome_CPDBAS_MultiCellCall_Details>
multisite active

>  <ChemicalPage_URL>
http://potency.berkeley.edu/chempages/N-NITROSO-N-METHYL-N-TETRADECYLAMINE.html

$$$$



 14 13  0  0  0  0  0  0  0  0999 V2000
    2.3099   -1.3278    0.0000 N   0  0  0  0  0  0  0  0  0  0  0  0
    3.4579   -1.9918    0.0000 C   0  0  0  0  0  0  0  0  0  0  0  0
    4.6059   -1.3278    0.0000 C   0  0  0  0  0  0  0  0  0  0  0  0
    5.7678   -1.9918    0.0000 C   0  0  0  0  0  0  0  0  0  0  0  0
    6.9158   -1.3278    0.0000 C   0  0  0  0  0  0  0  0  0  0  0  0
    8.0639   -1.9918    0.0000 C   0  0  0  0  0  0  0  0  0  0  0  0
    9.2257   -1.3278    0.0000 C   0  0  0  0  0  0  0  0  0  0  0  0
   10.3738   -1.9918    0.0000 C   0  0  0  0  0  0  0  0  0  0  0  0
   11.5218   -1.3278    0.0000 C   0  0  0  0  0  0  0  0  0  0  0  0
   12.6836   -1.9918    0.0000 C   0  0  0  0  0  0  0  0  0  0  0  0
   13.8317   -1.3278    0.0000 C   0  0  0  0  0  0  0  0  0  0  0  0
    2.3099    0.0000    0.0000 C   0  0  0  0  0  0  0  0  0  0  0  0
    1.1480   -1.9918    0.0000 N   0  0  0  0  0  0  0  0  0  0  0  0
    0.0000   -1.3278    0.0000 O   0  0  0  0  0  0  0  0  0  0  0  0
  1  2  1  0  0  0  0
  1 12  1  0  0  0  0
  1 13  1  0  0  0  0
  2  3  1  0  0  0  0
  3  4  1  0  0  0  0
  4  5  1  0  0  0  0
  5  6  1  0  0  0  0
  6  7  1  0  0  0  0
  7  8  1  0  0  0  0
  8  9  1  0  0  0  0
  9 10  1  0  0  0  0
 10 11  1  0  0  0  0
 13 14  2  0  0  0  0
M  END
>  <DSSTox_RID>
21005

>  <DSSTox_CID>
1005

>  <DSSTox_Generic_SID>
21005

>  <DSSTox_FileID>
1050_CPDBAS_v5d

>  <STRUCTURE_Formula>
C11H24N2O

>  <STRUCTURE_MolecularWeight>
200.3234

>  <STRUCTURE_ChemicalType>
defined organic

>  <STRUCTURE_TestedForm_DefinedOrganic>
parent

>  <STRUCTURE_Shown>
tested chemical

>  <TestSubstance_ChemicalName>
N-Nitroso-N-methyldecylamine

>  <TestSubstance_CASRN>
75881-22-0

>  <TestSubstance_Description>
single chemical compound

>  <STRUCTURE_ChemicalName_IUPAC>
N-methyl-N-nitrosodecan-1-amine

>  <STRUCTURE_SMILES>
N(CCCCCCCCCC)(C)N=O

>  <STRUCTURE_Parent_SMILES>
N(CCCCCCCCCC)(C)N=O

>  <STRUCTURE_InChI>
InChI=1/C11H24N2O/c1-3-4-5-6-7-8-9-10-11-13(2)12-14/h3-11H2,1-2H3

>  <STRUCTURE_InChIKey>
FWIVLSMSIPKDRU-UHFFFAOYAH

>  <StudyType>
Carcinogenicity

>  <Endpoint>
TD50; Tumor Target Sites

>  <Species>
rat

>  <TD50_Rat_mg>
1.26

>  <TD50_Rat_mmol>
0.00629

>  <ActivityScore_CPDBAS_Rat>
48

>  <TargetSites_Rat_Male>
liver; lung; nasal cavity; stomach; urinary bladder

>  <ActivityOutcome_CPDBAS_Rat>
active

>  <ActivityOutcome_CPDBAS_SingleCellCall>
active

>  <ActivityOutcome_CPDBAS_MultiCellCall>
active

>  <ActivityOutcome_CPDBAS_MultiCellCall_Details>
multisite active

>  <ChemicalPage_URL>
http://potency.berkeley.edu/chempages/N-NITROSO-N-METHYLDECYLAMINE.html

$$$$



  7  6  0  0  0  0  0  0  0  0999 V2000
    1.3291    0.0000    0.0000 C   0  0  0  0  0  0  0  0  0  0  0  0
    1.9956   -1.1495    0.0000 N   0  0  0  0  0  0  0  0  0  0  0  0
    3.3247   -1.1495    0.0000 C   0  0  0  0  0  0  0  0  0  0  0  0
    3.9912   -2.3029    0.0000 O   0  0  0  0  0  0  0  0  0  0  0  0
    3.9912    0.0000    0.0000 N   0  0  0  0  0  0  0  0  0  0  0  0
    1.3291   -2.3029    0.0000 N   0  0  0  0  0  0  0  0  0  0  0  0
    0.0000   -2.3029    0.0000 O   0  0  0  0  0  0  0  0  0  0  0  0
  1  2  1  0  0  0  0
  2  3  1  0  0  0  0
  2  6  1  0  0  0  0
  3  4  2  0  0  0  0
  3  5  1  0  0  0  0
  6  7  2  0  0  0  0
M  END
>  <DSSTox_RID>
21006

>  <DSSTox_CID>
1006

>  <DSSTox_Generic_SID>
21006

>  <DSSTox_FileID>
1051_CPDBAS_v5d

>  <STRUCTURE_Formula>
C2H5N3O2

>  <STRUCTURE_MolecularWeight>
103.08

>  <STRUCTURE_ChemicalType>
defined organic

>  <STRUCTURE_TestedForm_DefinedOrganic>
parent

>  <STRUCTURE_Shown>
tested chemical

>  <TestSubstance_ChemicalName>
N-Nitroso-N-methylurea

>  <TestSubstance_CASRN>
684-93-5

>  <TestSubstance_Description>
single chemical compound

>  <STRUCTURE_ChemicalName_IUPAC>
1-methyl-1-nitrosourea

>  <STRUCTURE_SMILES>
CN(C(=O)N)N=O

>  <STRUCTURE_Parent_SMILES>
CN(C(=O)N)N=O

>  <STRUCTURE_InChI>
InChI=1/C2H5N3O2/c1-5(4-7)2(3)6/h1H3,(H2,3,6)/f/h3H2

>  <STRUCTURE_InChIKey>
ZRKWMRDKSOPRRS-ZZOWFUDICU

>  <StudyType>
Carcinogenicity

>  <Endpoint>
TD50; Tumor Target Sites

>  <Species>
rat; mouse; rhesus; cynomolgus

>  <ActivityOutcome_CPDBAS_Mutagenicity>
active

>  <TD50_Rat_mg>
0.0927

>  <TD50_Rat_mmol>
0.000899

>  <ActivityScore_CPDBAS_Rat>
57

>  <TargetSites_Rat_Male>
lung; nervous system; stomach

>  <ActivityOutcome_CPDBAS_Rat>
active

>  <TD50_Mouse_mg>
1.23

>  <TD50_Mouse_mmol>
0.0119

>  <ActivityScore_CPDBAS_Mouse>
50

>  <TargetSites_Mouse_Male>
stomach; vascular system

>  <ActivityOutcome_CPDBAS_Mouse>
active

>  <TD50_Rhesus_mg>
7.18

>  <TargetSites_Rhesus>
esophagus

>  <TD50_Cynomolgus_mg>
4.52

>  <TargetSites_Cynomolgus>
esophagus

>  <ActivityOutcome_CPDBAS_Dog_Primates>
active

>  <ActivityOutcome_CPDBAS_SingleCellCall>
active

>  <ActivityOutcome_CPDBAS_MultiCellCall>
active

>  <ActivityOutcome_CPDBAS_MultiCellCall_Details>
multisite active; multispecies active

>  <ChemicalPage_URL>
http://potency.berkeley.edu/chempages/N-NITROSO-N-METHYLUREA.html

$$$$



  8  8  0  0  0  0  0  0  0  0999 V2000
    2.7766   -3.4152    0.0000 C   0  0  0  0  0  0  0  0  0  0  0  0
    1.9966   -2.3401    0.0000 N   0  0  0  0  0  0  0  0  0  0  0  0
    2.7766   -1.2650    0.0000 C   0  0  0  0  0  0  0  0  0  0  0  0
    4.0417   -1.6732    0.0000 O   0  0  0  0  0  0  0  0  0  0  0  0
    4.0417   -3.0070    0.0000 C   0  0  0  0  0  0  0  0  0  0  0  0
    2.3644    0.0000    0.0000 O   0  0  0  0  0  0  0  0  0  0  0  0
    0.6669   -2.3401    0.0000 N   0  0  0  0  0  0  0  0  0  0  0  0
    0.0000   -3.4920    0.0000 O   0  0  0  0  0  0  0  0  0  0  0  0
  1  2  1  0  0  0  0
  1  5  1  0  0  0  0
  2  3  1  0  0  0  0
  2  7  1  0  0  0  0
  3  4  1  0  0  0  0
  3  6  2  0  0  0  0
  4  5  1  0  0  0  0
  7  8  2  0  0  0  0
M  END
>  <DSSTox_RID>
21007

>  <DSSTox_CID>
1007

>  <DSSTox_Generic_SID>
21007

>  <DSSTox_FileID>
1052_CPDBAS_v5d

>  <STRUCTURE_Formula>
C3H4N2O3

>  <STRUCTURE_MolecularWeight>
116.0762

>  <STRUCTURE_ChemicalType>
defined organic

>  <STRUCTURE_TestedForm_DefinedOrganic>
parent

>  <STRUCTURE_Shown>
tested chemical

>  <TestSubstance_ChemicalName>
3-Nitroso-2-oxazolidinone

>  <TestSubstance_CASRN>
38347-74-9

>  <TestSubstance_Description>
single chemical compound

>  <STRUCTURE_ChemicalName_IUPAC>
3-nitroso-1,3-oxazolidin-2-one

>  <STRUCTURE_SMILES>
C1N(C(OC1)=O)N=O

>  <STRUCTURE_Parent_SMILES>
C1N(C(OC1)=O)N=O

>  <STRUCTURE_InChI>
InChI=1/C3H4N2O3/c6-3-5(4-7)1-2-8-3/h1-2H2

>  <STRUCTURE_InChIKey>
MDACSTFMCAQQET-UHFFFAOYAH

>  <StudyType>
Carcinogenicity

>  <Endpoint>
TD50; Tumor Target Sites

>  <Species>
rat

>  <TD50_Rat_mg>
0.385

>  <TD50_Rat_mmol>
0.00332

>  <ActivityScore_CPDBAS_Rat>
51

>  <TD50_Rat_Note>
TD50 is harmonic mean of more than one positive test; harmonic mean of TD50 includes a value for upper 99% confidence limit from study with 100% tumor incidence but no lifetable

>  <TargetSites_Rat_Male>
liver; small intestine

>  <ActivityOutcome_CPDBAS_Rat>
active

>  <ActivityOutcome_CPDBAS_SingleCellCall>
active

>  <ActivityOutcome_CPDBAS_MultiCellCall>
active

>  <ActivityOutcome_CPDBAS_MultiCellCall_Details>
multisite active

>  <ChemicalPage_URL>
http://potency.berkeley.edu/chempages/3-NITROSO-2-OXAZOLIDINONE.html

$$$$



 10  9  0  0  0  0  0  0  0  0999 V2000
    1.9973   -3.4592    0.0000 N   0  0  0  0  0  0  0  0  0  0  0  0
    2.6584   -2.3046    0.0000 C   0  0  0  0  0  0  0  0  0  0  0  0
    1.9973   -1.1546    0.0000 C   0  0  0  0  0  0  0  0  0  0  0  0
    0.6658   -1.1546    0.0000 C   0  0  0  0  0  0  0  0  0  0  0  0
    2.6584    0.0000    0.0000 O   0  0  0  0  0  0  0  0  0  0  0  0
    2.6584   -4.6091    0.0000 C   0  0  0  0  0  0  0  0  0  0  0  0
    3.9899   -4.6091    0.0000 C   0  0  0  0  0  0  0  0  0  0  0  0
    4.6557   -3.4592    0.0000 O   0  0  0  0  0  0  0  0  0  0  0  0
    0.6658   -3.4592    0.0000 N   0  0  0  0  0  0  0  0  0  0  0  0
    0.0000   -2.3046    0.0000 O   0  0  0  0  0  0  0  0  0  0  0  0
  1  2  1  0  0  0  0
  1  6  1  0  0  0  0
  1  9  1  0  0  0  0
  2  3  1  0  0  0  0
  3  4  1  0  0  0  0
  3  5  2  0  0  0  0
  6  7  1  0  0  0  0
  7  8  1  0  0  0  0
  9 10  2  0  0  0  0
M  END
>  <DSSTox_RID>
21008

>  <DSSTox_CID>
1008

>  <DSSTox_Generic_SID>
21008

>  <DSSTox_FileID>
1053_CPDBAS_v5d

>  <STRUCTURE_Formula>
C5H10N2O3

>  <STRUCTURE_MolecularWeight>
146.1456

>  <STRUCTURE_ChemicalType>
defined organic

>  <STRUCTURE_TestedForm_DefinedOrganic>
parent

>  <STRUCTURE_Shown>
tested chemical

>  <TestSubstance_ChemicalName>
Nitroso-2-oxopropylethanolamine

>  <TestSubstance_CASRN>
92177-49-6

>  <TestSubstance_Description>
single chemical compound

>  <STRUCTURE_ChemicalName_IUPAC>
1-[(2-hydroxyethyl)(nitroso)amino]propan-2-one

>  <STRUCTURE_SMILES>
O=C(C)CN(N=O)CCO

>  <STRUCTURE_Parent_SMILES>
O=C(C)CN(N=O)CCO

>  <STRUCTURE_InChI>
InChI=1/C5H10N2O3/c1-5(9)4-7(6-10)2-3-8/h8H,2-4H2,1H3

>  <STRUCTURE_InChIKey>
PTFPKIPNOCKCFE-UHFFFAOYAQ

>  <StudyType>
Carcinogenicity

>  <Endpoint>
TD50; Tumor Target Sites

>  <Species>
rat; hamster

>  <TD50_Rat_mg>
1.8

>  <TD50_Rat_mmol>
0.0123

>  <ActivityScore_CPDBAS_Rat>
45

>  <TargetSites_Rat_Female>
liver

>  <ActivityOutcome_CPDBAS_Rat>
active

>  <TD50_Hamster_mg>
0.997

>  <TD50_Hamster_mmol>
0.00682

>  <ActivityScore_CPDBAS_Hamster>
78

>  <TargetSites_Hamster_Female>
liver; pancreas

>  <ActivityOutcome_CPDBAS_Hamster>
active

>  <ActivityOutcome_CPDBAS_SingleCellCall>
active

>  <ActivityOutcome_CPDBAS_MultiCellCall>
active

>  <ActivityOutcome_CPDBAS_MultiCellCall_Details>
multisite active; multispecies active

>  <Note_CPDBAS>
Hamster added v3a

>  <ChemicalPage_URL>
http://potency.berkeley.edu/chempages/NITROSO-2-OXOPROPYLETHANOLAMINE.html

$$$$



 10 10  0  0  0  0  0  0  0  0999 V2000
    2.3004   -0.6632    0.0000 C   0  0  0  0  0  0  0  0  0  0  0  0
    3.4540    0.0000    0.0000 C   0  0  0  0  0  0  0  0  0  0  0  0
    4.6077   -0.6632    0.0000 C   0  0  0  0  0  0  0  0  0  0  0  0
    4.6077   -1.9964    0.0000 N   0  0  0  0  0  0  0  0  0  0  0  0
    3.4540   -2.6596    0.0000 C   0  0  0  0  0  0  0  0  0  0  0  0
    2.3004   -1.9964    0.0000 N   0  0  0  0  0  0  0  0  0  0  0  0
    1.1537   -2.6596    0.0000 N   0  0  0  0  0  0  0  0  0  0  0  0
    0.0000   -1.9964    0.0000 O   0  0  0  0  0  0  0  0  0  0  0  0
    5.7544   -2.6596    0.0000 N   0  0  0  0  0  0  0  0  0  0  0  0
    6.9081   -1.9964    0.0000 O   0  0  0  0  0  0  0  0  0  0  0  0
  1  2  1  0  0  0  0
  1  6  1  0  0  0  0
  2  3  1  0  0  0  0
  3  4  1  0  0  0  0
  4  5  1  0  0  0  0
  4  9  1  0  0  0  0
  5  6  1  0  0  0  0
  6  7  1  0  0  0  0
  7  8  2  0  0  0  0
  9 10  2  0  0  0  0
M  END
>  <DSSTox_RID>
21009

>  <DSSTox_CID>
1009

>  <DSSTox_Generic_SID>
21009

>  <DSSTox_FileID>
1054_CPDBAS_v5d

>  <STRUCTURE_Formula>
C4H8N4O2

>  <STRUCTURE_MolecularWeight>
144.1328

>  <STRUCTURE_ChemicalType>
defined organic

>  <STRUCTURE_TestedForm_DefinedOrganic>
parent

>  <STRUCTURE_Shown>
tested chemical

>  <TestSubstance_ChemicalName>
di(N-Nitroso)-perhydropyrimidine

>  <TestSubstance_CASRN>
15973-99-6

>  <TestSubstance_Description>
single chemical compound

>  <STRUCTURE_ChemicalName_IUPAC>
1,3-dinitrosohexahydropyrimidine

>  <STRUCTURE_SMILES>
C1CCN(CN1N=O)N=O

>  <STRUCTURE_Parent_SMILES>
C1CCN(CN1N=O)N=O

>  <STRUCTURE_InChI>
InChI=1/C4H8N4O2/c9-5-7-2-1-3-8(4-7)6-10/h1-4H2

>  <STRUCTURE_InChIKey>
JSPJZBZNGPDBLH-UHFFFAOYAR

>  <StudyType>
Carcinogenicity

>  <Endpoint>
TD50; Tumor Target Sites

>  <Species>
rat

>  <TD50_Rat_mg>
0.166

>  <TD50_Rat_mmol>
0.00115

>  <ActivityScore_CPDBAS_Rat>
56

>  <TD50_Rat_Note>
positive test results only by intraperitoneal or intravenous injection

>  <TargetSites_Rat_Male>
nasal cavity

>  <ActivityOutcome_CPDBAS_Rat>
active

>  <ActivityOutcome_CPDBAS_SingleCellCall>
active

>  <ChemicalPage_URL>
http://potency.berkeley.edu/chempages/DI(N-NITROSO)-PERHYDROPYRIMIDINE.html

$$$$



  8  8  0  0  0  0  0  0  0  0999 V2000
    0.0000    0.0000    0.0000 O   0  0  0  0  0  0  0  0  0  0  0  0
    0.6654   -1.1540    0.0000 N   0  0  0  0  0  0  0  0  0  0  0  0
    1.9962   -1.1540    0.0000 N   0  0  0  0  0  0  0  0  0  0  0  0
    2.6569    0.0000    0.0000 C   0  0  0  0  0  0  0  0  0  0  0  0
    3.9877    0.0000    0.0000 C   0  0  0  0  0  0  0  0  0  0  0  0
    4.6531   -1.1540    0.0000 C   0  0  0  0  0  0  0  0  0  0  0  0
    2.6569   -2.3033    0.0000 C   0  0  0  0  0  0  0  0  0  0  0  0
    3.9877   -2.3033    0.0000 C   0  0  0  0  0  0  0  0  0  0  0  0
  1  2  2  0  0  0  0
  2  3  1  0  0  0  0
  3  4  1  0  0  0  0
  3  7  1  0  0  0  0
  4  5  1  0  0  0  0
  5  6  2  0  0  0  0
  6  8  1  0  0  0  0
  7  8  1  0  0  0  0
M  END
>  <DSSTox_RID>
21010

>  <DSSTox_CID>
1010

>  <DSSTox_Generic_SID>
21010

>  <DSSTox_FileID>
1055_CPDBAS_v5d

>  <STRUCTURE_Formula>
C5H8N2O

>  <STRUCTURE_MolecularWeight>
112.131

>  <STRUCTURE_ChemicalType>
defined organic

>  <STRUCTURE_TestedForm_DefinedOrganic>
parent

>  <STRUCTURE_Shown>
tested chemical

>  <TestSubstance_ChemicalName>
Nitroso-1,2,3,6-tetrahydropyridine

>  <TestSubstance_CASRN>
55556-92-8

>  <TestSubstance_Description>
single chemical compound

>  <STRUCTURE_ChemicalName_IUPAC>
1-nitroso-1,2,3,6-tetrahydropyridine

>  <STRUCTURE_SMILES>
O=NN(CC=C1)CC1

>  <STRUCTURE_Parent_SMILES>
O=NN(CC=C1)CC1

>  <STRUCTURE_InChI>
InChI=1/C5H8N2O/c8-6-7-4-2-1-3-5-7/h1-2H,3-5H2

>  <STRUCTURE_InChIKey>
KIUHZRUPPGAVPY-UHFFFAOYAE

>  <StudyType>
Carcinogenicity

>  <Endpoint>
TD50; Tumor Target Sites

>  <Species>
rat

>  <ActivityOutcome_CPDBAS_Mutagenicity>
active

>  <TD50_Rat_mg>
0.0601

>  <TD50_Rat_mmol>
0.000536

>  <ActivityScore_CPDBAS_Rat>
60

>  <TD50_Rat_Note>
TD50 is harmonic mean of more than one positive test; harmonic mean of TD50 includes a value for upper 99% confidence limit from study with 100% tumor incidence but no lifetable

>  <TargetSites_Rat_Female>
esophagus; liver; stomach; vascular system

>  <ActivityOutcome_CPDBAS_Rat>
active

>  <ActivityOutcome_CPDBAS_SingleCellCall>
active

>  <ActivityOutcome_CPDBAS_MultiCellCall>
active

>  <ActivityOutcome_CPDBAS_MultiCellCall_Details>
multisite active

>  <ChemicalPage_URL>
http://potency.berkeley.edu/chempages/NITROSO-1,2,3,6-TETRAHYDROPYRIDINE.html

$$$$



 10  9  0  0  0  0  0  0  0  0999 V2000
    2.3027   -3.3238    0.0000 N   0  0  0  0  0  0  0  0  0  0  0  0
    3.4567   -2.6590    0.0000 C   0  0  0  0  0  0  0  0  0  0  0  0
    3.4567   -1.3295    0.0000 C   0  0  0  0  0  0  0  0  0  0  0  0
    3.4567    0.0000    0.0000 F   0  0  0  0  0  0  0  0  0  0  0  0
    4.7862   -1.3295    0.0000 F   0  0  0  0  0  0  0  0  0  0  0  0
    2.1272   -1.3295    0.0000 F   0  0  0  0  0  0  0  0  0  0  0  0
    2.3027   -4.6533    0.0000 C   0  0  0  0  0  0  0  0  0  0  0  0
    3.4567   -5.3180    0.0000 C   0  0  0  0  0  0  0  0  0  0  0  0
    1.1487   -2.6590    0.0000 N   0  0  0  0  0  0  0  0  0  0  0  0
    0.0000   -3.3238    0.0000 O   0  0  0  0  0  0  0  0  0  0  0  0
  1  2  1  0  0  0  0
  1  7  1  0  0  0  0
  1  9  1  0  0  0  0
  2  3  1  0  0  0  0
  3  4  1  0  0  0  0
  3  5  1  0  0  0  0
  3  6  1  0  0  0  0
  7  8  1  0  0  0  0
  9 10  2  0  0  0  0
M  END
>  <DSSTox_RID>
21011

>  <DSSTox_CID>
1011

>  <DSSTox_Generic_SID>
21011

>  <DSSTox_FileID>
1056_CPDBAS_v5d

>  <STRUCTURE_Formula>
C4H7F3N2O

>  <STRUCTURE_MolecularWeight>
156.1073

>  <STRUCTURE_ChemicalType>
defined organic

>  <STRUCTURE_TestedForm_DefinedOrganic>
parent

>  <STRUCTURE_Shown>
tested chemical

>  <TestSubstance_ChemicalName>
N-Nitroso(2,2,2-trifluoroethyl) ethylamine

>  <TestSubstance_CASRN>
82018-90-4

>  <TestSubstance_Description>
single chemical compound

>  <STRUCTURE_ChemicalName_IUPAC>
N-ethyl-2,2,2-trifluoro-N-nitrosoethanamine

>  <STRUCTURE_SMILES>
N(CC(F)(F)F)(CC)N=O

>  <STRUCTURE_Parent_SMILES>
N(CC(F)(F)F)(CC)N=O

>  <STRUCTURE_InChI>
InChI=1/C4H7F3N2O/c1-2-9(8-10)3-4(5,6)7/h2-3H2,1H3

>  <STRUCTURE_InChIKey>
FCYWOYUDCUKTJC-UHFFFAOYAJ

>  <StudyType>
Carcinogenicity

>  <Endpoint>
TD50; Tumor Target Sites

>  <Species>
rat

>  <TD50_Rat_mg>
2.52

>  <TD50_Rat_mmol>
0.0161

>  <ActivityScore_CPDBAS_Rat>
44

>  <TargetSites_Rat_Male>
esophagus; nasal cavity

>  <ActivityOutcome_CPDBAS_Rat>
active

>  <ActivityOutcome_CPDBAS_SingleCellCall>
active

>  <ActivityOutcome_CPDBAS_MultiCellCall>
active

>  <ActivityOutcome_CPDBAS_MultiCellCall_Details>
multisite active

>  <ChemicalPage_URL>
http://potency.berkeley.edu/chempages/N-NITROSO(2,2,2-TRIFLUOROETHYL)ETHYLAMINE.html

$$$$



 11 11  0  0  0  0  0  0  0  0999 V2000
    3.3269   -3.4585    0.0000 C   0  0  0  0  0  0  0  0  0  0  0  0
    1.9925   -3.4585    0.0000 C   0  0  3  0  0  0  0  0  0  0  0  0
    1.3283   -2.3037    0.0000 N   0  0  0  0  0  0  0  0  0  0  0  0
    1.9925   -1.1548    0.0000 C   0  0  3  0  0  0  0  0  0  0  0  0
    3.3269   -1.1548    0.0000 C   0  0  0  0  0  0  0  0  0  0  0  0
    3.9910   -2.3037    0.0000 N   0  0  0  0  0  0  0  0  0  0  0  0
    5.3194   -2.3037    0.0000 N   0  0  0  0  0  0  0  0  0  0  0  0
    5.9835   -1.1548    0.0000 O   0  0  0  0  0  0  0  0  0  0  0  0
    1.3283    0.0000    0.0000 C   0  0  0  0  0  0  0  0  0  0  0  0
    0.0000   -2.3037    0.0000 C   0  0  0  0  0  0  0  0  0  0  0  0
    1.3283   -4.6073    0.0000 C   0  0  0  0  0  0  0  0  0  0  0  0
  1  2  1  0  0  0  0
  1  6  1  0  0  0  0
  2  3  1  0  0  0  0
  2 11  1  0  0  0  0
  3  4  1  0  0  0  0
  3 10  1  0  0  0  0
  4  5  1  0  0  0  0
  4  9  1  0  0  0  0
  5  6  1  0  0  0  0
  6  7  1  0  0  0  0
  7  8  2  0  0  0  0
M  END
>  <DSSTox_RID>
21013

>  <DSSTox_CID>
1013

>  <DSSTox_Generic_SID>
21013

>  <DSSTox_FileID>
1058_CPDBAS_v5d

>  <STRUCTURE_Formula>
C7H15N3O

>  <STRUCTURE_MolecularWeight>
157.215

>  <STRUCTURE_ChemicalType>
defined organic

>  <STRUCTURE_TestedForm_DefinedOrganic>
parent

>  <STRUCTURE_Shown>
tested chemical

>  <TestSubstance_ChemicalName>
1-Nitroso-3,4,5-trimethylpiperazine

>  <TestSubstance_CASRN>
75881-18-4

>  <TestSubstance_Description>
single chemical compound

>  <STRUCTURE_ChemicalName_IUPAC>
1,2,6-trimethyl-4-nitrosopiperazine

>  <STRUCTURE_SMILES>
C1C(N(C(CN1N=O)C)C)C

>  <STRUCTURE_Parent_SMILES>
C1C(N(C(CN1N=O)C)C)C

>  <STRUCTURE_InChI>
InChI=1/C7H15N3O/c1-6-4-10(8-11)5-7(2)9(6)3/h6-7H,4-5H2,1-3H3

>  <STRUCTURE_InChIKey>
MPIROZKBCRIFBH-UHFFFAOYAR

>  <StudyType>
Carcinogenicity

>  <Endpoint>
TD50; Tumor Target Sites

>  <Species>
rat; hamster

>  <TD50_Rat_mg>
0.151

>  <TD50_Rat_mmol>
0.00096

>  <ActivityScore_CPDBAS_Rat>
57

>  <TargetSites_Rat_Female>
nasal cavity

>  <ActivityOutcome_CPDBAS_Rat>
active

>  <TD50_Hamster_mg>
1.32

>  <TD50_Hamster_mmol>
0.0084

>  <ActivityScore_CPDBAS_Hamster>
76

>  <TargetSites_Hamster_Male>
lung; stomach

>  <ActivityOutcome_CPDBAS_Hamster>
active

>  <ActivityOutcome_CPDBAS_SingleCellCall>
active

>  <ActivityOutcome_CPDBAS_MultiCellCall>
active

>  <ActivityOutcome_CPDBAS_MultiCellCall_Details>
multisite active; multisex active; multispecies active

>  <Note_CPDBAS>
Hamster added v3a

>  <ChemicalPage_URL>
http://potency.berkeley.edu/chempages/1-NITROSO-3,4,5-TRIMETHYLPIPERAZINE.html

$$$$



 11 10  0  0  0  0  0  0  0  0999 V2000
    3.9901   -2.3031    0.0000 N   0  0  0  0  0  0  0  0  0  0  0  0
    3.3261   -1.1486    0.0000 C   0  0  0  0  0  0  0  0  0  0  0  0
    1.9921   -1.1486    0.0000 C   0  0  3  0  0  0  0  0  0  0  0  0
    1.3280   -2.3031    0.0000 C   0  0  0  0  0  0  0  0  0  0  0  0
    0.0000   -2.3031    0.0000 O   0  0  0  0  0  0  0  0  0  0  0  0
    1.3280    0.0000    0.0000 O   0  0  0  0  0  0  0  0  0  0  0  0
    5.3182   -2.3031    0.0000 C   0  0  0  0  0  0  0  0  0  0  0  0
    5.9822   -1.1486    0.0000 C   0  0  0  0  0  0  0  0  0  0  0  0
    5.3182    0.0000    0.0000 C   0  0  0  0  0  0  0  0  0  0  0  0
    3.3261   -3.4517    0.0000 N   0  0  0  0  0  0  0  0  0  0  0  0
    1.9921   -3.4517    0.0000 O   0  0  0  0  0  0  0  0  0  0  0  0
  1  2  1  0  0  0  0
  1  7  1  0  0  0  0
  1 10  1  0  0  0  0
  2  3  1  0  0  0  0
  3  4  1  0  0  0  0
  3  6  1  0  0  0  0
  4  5  1  0  0  0  0
  7  8  1  0  0  0  0
  8  9  2  0  0  0  0
 10 11  2  0  0  0  0
M  END
>  <DSSTox_RID>
21014

>  <DSSTox_CID>
1014

>  <DSSTox_Generic_SID>
21014

>  <DSSTox_FileID>
1059_CPDBAS_v5d

>  <STRUCTURE_Formula>
C6H12N2O3

>  <STRUCTURE_MolecularWeight>
160.1724

>  <STRUCTURE_ChemicalType>
defined organic

>  <STRUCTURE_TestedForm_DefinedOrganic>
parent

>  <STRUCTURE_Shown>
tested chemical

>  <TestSubstance_ChemicalName>
N-Nitrosoallyl-2,3-dihydroxypropylamine

>  <TestSubstance_CASRN>
88208-16-6

>  <TestSubstance_Description>
single chemical compound

>  <STRUCTURE_ChemicalName_IUPAC>
3-[nitroso(prop-2-en-1-yl)amino]propane-1,2-diol

>  <STRUCTURE_SMILES>
N(CC(CO)O)(CC=C)N=O

>  <STRUCTURE_Parent_SMILES>
N(CC(CO)O)(CC=C)N=O

>  <STRUCTURE_InChI>
InChI=1/C6H12N2O3/c1-2-3-8(7-11)4-6(10)5-9/h2,6,9-10H,1,3-5H2

>  <STRUCTURE_InChIKey>
DMCULBAURODNDN-UHFFFAOYAR

>  <StudyType>
Carcinogenicity

>  <Endpoint>
TD50; Tumor Target Sites

>  <Species>
rat

>  <TD50_Rat_mg>
0.825

>  <TD50_Rat_mmol>
0.00515

>  <ActivityScore_CPDBAS_Rat>
49

>  <TargetSites_Rat_Female>
esophagus; nasal cavity

>  <ActivityOutcome_CPDBAS_Rat>
active

>  <ActivityOutcome_CPDBAS_SingleCellCall>
active

>  <ActivityOutcome_CPDBAS_MultiCellCall>
active

>  <ActivityOutcome_CPDBAS_MultiCellCall_Details>
multisite active

>  <ChemicalPage_URL>
http://potency.berkeley.edu/chempages/N-NITROSOALLYL-2,3-DIHYDROXYPROPYLAMINE.html

$$$$



 10  9  0  0  0  0  0  0  0  0999 V2000
    1.9973   -3.4592    0.0000 N   0  0  0  0  0  0  0  0  0  0  0  0
    2.6584   -2.3046    0.0000 C   0  0  0  0  0  0  0  0  0  0  0  0
    1.9973   -1.1546    0.0000 C   0  0  3  0  0  0  0  0  0  0  0  0
    0.6658   -1.1546    0.0000 C   0  0  0  0  0  0  0  0  0  0  0  0
    2.6584    0.0000    0.0000 O   0  0  0  0  0  0  0  0  0  0  0  0
    2.6584   -4.6091    0.0000 C   0  0  0  0  0  0  0  0  0  0  0  0
    3.9899   -4.6091    0.0000 C   0  0  0  0  0  0  0  0  0  0  0  0
    4.6557   -3.4592    0.0000 C   0  0  0  0  0  0  0  0  0  0  0  0
    0.6658   -3.4592    0.0000 N   0  0  0  0  0  0  0  0  0  0  0  0
    0.0000   -2.3046    0.0000 O   0  0  0  0  0  0  0  0  0  0  0  0
  1  2  1  0  0  0  0
  1  6  1  0  0  0  0
  1  9  1  0  0  0  0
  2  3  1  0  0  0  0
  3  4  1  0  0  0  0
  3  5  1  0  0  0  0
  6  7  1  0  0  0  0
  7  8  2  0  0  0  0
  9 10  2  0  0  0  0
M  END
>  <DSSTox_RID>
21015

>  <DSSTox_CID>
1015

>  <DSSTox_Generic_SID>
21015

>  <DSSTox_FileID>
1060_CPDBAS_v5d

>  <STRUCTURE_Formula>
C6H12N2O2

>  <STRUCTURE_MolecularWeight>
144.173

>  <STRUCTURE_ChemicalType>
defined organic

>  <STRUCTURE_TestedForm_DefinedOrganic>
parent

>  <STRUCTURE_Shown>
tested chemical

>  <TestSubstance_ChemicalName>
N-Nitrosoallyl-2-hydroxypropylamine

>  <TestSubstance_CASRN>
91308-70-2

>  <TestSubstance_Description>
single chemical compound

>  <STRUCTURE_ChemicalName_IUPAC>
1-[nitroso(prop-2-en-1-yl)amino]propan-2-ol

>  <STRUCTURE_SMILES>
N(CC(C)O)(CC=C)N=O

>  <STRUCTURE_Parent_SMILES>
N(CC(C)O)(CC=C)N=O

>  <STRUCTURE_InChI>
InChI=1/C6H12N2O2/c1-3-4-8(7-10)5-6(2)9/h3,6,9H,1,4-5H2,2H3

>  <STRUCTURE_InChIKey>
NLJASJZSFGKTQT-UHFFFAOYAT

>  <StudyType>
Carcinogenicity

>  <Endpoint>
TD50; Tumor Target Sites

>  <Species>
rat

>  <TD50_Rat_mg>
0.877

>  <TD50_Rat_mmol>
0.00608

>  <ActivityScore_CPDBAS_Rat>
49

>  <TargetSites_Rat_Female>
esophagus; liver; nasal cavity

>  <ActivityOutcome_CPDBAS_Rat>
active

>  <ActivityOutcome_CPDBAS_SingleCellCall>
active

>  <ActivityOutcome_CPDBAS_MultiCellCall>
active

>  <ActivityOutcome_CPDBAS_MultiCellCall_Details>
multisite active

>  <ChemicalPage_URL>
http://potency.berkeley.edu/chempages/N-NITROSOALLYL-2-HYDROXYPROPYLAMINE.html

$$$$



 10  9  0  0  0  0  0  0  0  0999 V2000
    1.9973   -3.4592    0.0000 N   0  0  0  0  0  0  0  0  0  0  0  0
    2.6584   -2.3046    0.0000 C   0  0  0  0  0  0  0  0  0  0  0  0
    1.9973   -1.1546    0.0000 C   0  0  0  0  0  0  0  0  0  0  0  0
    0.6658   -1.1546    0.0000 C   0  0  0  0  0  0  0  0  0  0  0  0
    2.6584    0.0000    0.0000 O   0  0  0  0  0  0  0  0  0  0  0  0
    2.6584   -4.6091    0.0000 C   0  0  0  0  0  0  0  0  0  0  0  0
    3.9899   -4.6091    0.0000 C   0  0  0  0  0  0  0  0  0  0  0  0
    4.6557   -3.4592    0.0000 C   0  0  0  0  0  0  0  0  0  0  0  0
    0.6658   -3.4592    0.0000 N   0  0  0  0  0  0  0  0  0  0  0  0
    0.0000   -2.3046    0.0000 O   0  0  0  0  0  0  0  0  0  0  0  0
  1  2  1  0  0  0  0
  1  6  1  0  0  0  0
  1  9  1  0  0  0  0
  2  3  1  0  0  0  0
  3  4  1  0  0  0  0
  3  5  2  0  0  0  0
  6  7  1  0  0  0  0
  7  8  2  0  0  0  0
  9 10  2  0  0  0  0
M  END
>  <DSSTox_RID>
21016

>  <DSSTox_CID>
1016

>  <DSSTox_Generic_SID>
21016

>  <DSSTox_FileID>
1061_CPDBAS_v5d

>  <STRUCTURE_Formula>
C6H10N2O2

>  <STRUCTURE_MolecularWeight>
142.1572

>  <STRUCTURE_ChemicalType>
defined organic

>  <STRUCTURE_TestedForm_DefinedOrganic>
parent

>  <STRUCTURE_Shown>
tested chemical

>  <TestSubstance_ChemicalName>
N-Nitrosoallyl-2-oxopropylamine

>  <TestSubstance_CASRN>
91308-71-3

>  <TestSubstance_Description>
single chemical compound

>  <STRUCTURE_ChemicalName_IUPAC>
1-[nitroso(prop-2-en-1-yl)amino]propan-2-one

>  <STRUCTURE_SMILES>
N(CC(C)=O)(CC=C)N=O

>  <STRUCTURE_Parent_SMILES>
N(CC(C)=O)(CC=C)N=O

>  <STRUCTURE_InChI>
InChI=1/C6H10N2O2/c1-3-4-8(7-10)5-6(2)9/h3H,1,4-5H2,2H3

>  <STRUCTURE_InChIKey>
MATYBIXNDNXYMI-UHFFFAOYAE

>  <StudyType>
Carcinogenicity

>  <Endpoint>
TD50; Tumor Target Sites

>  <Species>
rat; hamster

>  <TD50_Rat_mg>
0.335

>  <TD50_Rat_mmol>
0.00236

>  <ActivityScore_CPDBAS_Rat>
53

>  <TargetSites_Rat_Female>
esophagus; liver

>  <ActivityOutcome_CPDBAS_Rat>
active

>  <TD50_Hamster_mg>
1.19

>  <TD50_Hamster_mmol>
0.00837

>  <ActivityScore_CPDBAS_Hamster>
76

>  <TargetSites_Hamster_Female>
liver; nasal cavity

>  <ActivityOutcome_CPDBAS_Hamster>
active

>  <ActivityOutcome_CPDBAS_SingleCellCall>
active

>  <ActivityOutcome_CPDBAS_MultiCellCall>
active

>  <ActivityOutcome_CPDBAS_MultiCellCall_Details>
multisite active; multispecies active

>  <ChemicalPage_URL>
http://potency.berkeley.edu/chempages/N-NITROSOALLYL-2-OXOPROPYLAMINE.html

$$$$



  9  8  0  0  0  0  0  0  0  0999 V2000
    2.3040   -1.9953    0.0000 N   0  0  0  0  0  0  0  0  0  0  0  0
    2.3040   -0.6635    0.0000 C   0  0  0  0  0  0  0  0  0  0  0  0
    1.1520    0.0000    0.0000 C   0  0  0  0  0  0  0  0  0  0  0  0
    0.0000   -0.6635    0.0000 C   0  0  0  0  0  0  0  0  0  0  0  0
    3.4560   -2.6588    0.0000 C   0  0  0  0  0  0  0  0  0  0  0  0
    4.6080   -1.9953    0.0000 C   0  0  0  0  0  0  0  0  0  0  0  0
    4.6080   -0.6635    0.0000 O   0  0  0  0  0  0  0  0  0  0  0  0
    1.1520   -2.6588    0.0000 N   0  0  0  0  0  0  0  0  0  0  0  0
    0.0000   -1.9953    0.0000 O   0  0  0  0  0  0  0  0  0  0  0  0
  1  2  1  0  0  0  0
  1  5  1  0  0  0  0
  1  8  1  0  0  0  0
  2  3  1  0  0  0  0
  3  4  2  0  0  0  0
  5  6  1  0  0  0  0
  6  7  1  0  0  0  0
  8  9  2  0  0  0  0
M  END
>  <DSSTox_RID>
21017

>  <DSSTox_CID>
1017

>  <DSSTox_Generic_SID>
21017

>  <DSSTox_FileID>
1062_CPDBAS_v5d

>  <STRUCTURE_Formula>
C5H10N2O2

>  <STRUCTURE_MolecularWeight>
130.1462

>  <STRUCTURE_ChemicalType>
defined organic

>  <STRUCTURE_TestedForm_DefinedOrganic>
parent

>  <STRUCTURE_Shown>
tested chemical

>  <TestSubstance_ChemicalName>
N-Nitrosoallylethanolamine

>  <TestSubstance_CASRN>
91308-69-9

>  <TestSubstance_Description>
single chemical compound

>  <STRUCTURE_ChemicalName_IUPAC>
2-[nitroso(prop-2-en-1-yl)amino]ethanol

>  <STRUCTURE_SMILES>
N(CC=C)(CCO)N=O

>  <STRUCTURE_Parent_SMILES>
N(CC=C)(CCO)N=O

>  <STRUCTURE_InChI>
InChI=1/C5H10N2O2/c1-2-3-7(6-9)4-5-8/h2,8H,1,3-5H2

>  <STRUCTURE_InChIKey>
ANASRAPCLNYZFM-UHFFFAOYAE

>  <StudyType>
Carcinogenicity

>  <Endpoint>
TD50; Tumor Target Sites

>  <Species>
rat

>  <TD50_Rat_mg>
0.491

>  <TD50_Rat_mmol>
0.00377

>  <ActivityScore_CPDBAS_Rat>
51

>  <TargetSites_Rat_Female>
liver; nasal cavity

>  <ActivityOutcome_CPDBAS_Rat>
active

>  <ActivityOutcome_CPDBAS_SingleCellCall>
active

>  <ActivityOutcome_CPDBAS_MultiCellCall>
active

>  <ActivityOutcome_CPDBAS_MultiCellCall_Details>
multisite active

>  <ChemicalPage_URL>
http://potency.berkeley.edu/chempages/N-NITROSOALLYLETHANOLAMINE.html

$$$$



 13 12  0  0  0  0  0  0  0  0999 V2000
    5.3150   -3.4534    0.0000 O   0  0  0  0  0  0  0  0  0  0  0  0
    5.9852   -2.2992    0.0000 C   0  0  0  0  0  0  0  0  0  0  0  0
    5.3150   -1.1542    0.0000 N   0  0  0  0  0  0  0  0  0  0  0  0
    3.9933   -1.1542    0.0000 C   0  0  0  0  0  0  0  0  0  0  0  0
    3.3231   -2.2992    0.0000 C   0  0  0  0  0  0  0  0  0  0  0  0
    1.9920   -2.2992    0.0000 C   0  0  0  0  0  0  0  0  0  0  0  0
    1.3311   -3.4534    0.0000 C   0  0  0  0  0  0  0  0  0  0  0  0
    0.0000   -3.4534    0.0000 C   0  0  0  0  0  0  0  0  0  0  0  0
    5.9852    0.0000    0.0000 N   0  0  0  0  0  0  0  0  0  0  0  0
    7.3163    0.0000    0.0000 O   0  0  0  0  0  0  0  0  0  0  0  0
    7.3163   -2.2992    0.0000 O   0  0  0  0  0  0  0  0  0  0  0  0
    7.9772   -3.4534    0.0000 C   0  0  0  0  0  0  0  0  0  0  0  0
    9.3083   -3.4534    0.0000 C   0  0  0  0  0  0  0  0  0  0  0  0
  1  2  2  0  0  0  0
  2  3  1  0  0  0  0
  2 11  1  0  0  0  0
  3  4  1  0  0  0  0
  3  9  1  0  0  0  0
  4  5  1  0  0  0  0
  5  6  1  0  0  0  0
  6  7  1  0  0  0  0
  7  8  1  0  0  0  0
  9 10  2  0  0  0  0
 11 12  1  0  0  0  0
 12 13  1  0  0  0  0
M  END
>  <DSSTox_RID>
21018

>  <DSSTox_CID>
1018

>  <DSSTox_Generic_SID>
21018

>  <DSSTox_FileID>
1063_CPDBAS_v5d

>  <STRUCTURE_Formula>
C8H16N2O3

>  <STRUCTURE_MolecularWeight>
188.226

>  <STRUCTURE_ChemicalType>
defined organic

>  <STRUCTURE_TestedForm_DefinedOrganic>
parent

>  <STRUCTURE_Shown>
tested chemical

>  <TestSubstance_ChemicalName>
Nitrosoamylurethane

>  <TestSubstance_CASRN>
64005-62-5

>  <TestSubstance_Description>
single chemical compound

>  <STRUCTURE_ChemicalName_IUPAC>
ethyl nitroso(pentyl)carbamate

>  <STRUCTURE_SMILES>
O=C(N(CCCCC)N=O)OCC

>  <STRUCTURE_Parent_SMILES>
O=C(N(CCCCC)N=O)OCC

>  <STRUCTURE_InChI>
InChI=1/C8H16N2O3/c1-3-5-6-7-10(9-12)8(11)13-4-2/h3-7H2,1-2H3

>  <STRUCTURE_InChIKey>
QKACYYADMAYIDQ-UHFFFAOYAZ

>  <StudyType>
Carcinogenicity

>  <Endpoint>
TD50; Tumor Target Sites

>  <Species>
rat

>  <TD50_Rat_mg>
1.01

>  <TD50_Rat_mmol>
0.00537

>  <ActivityScore_CPDBAS_Rat>
49

>  <TargetSites_Rat_Female>
esophagus; oral cavity

>  <ActivityOutcome_CPDBAS_Rat>
active

>  <ActivityOutcome_CPDBAS_SingleCellCall>
active

>  <ActivityOutcome_CPDBAS_MultiCellCall>
active

>  <ActivityOutcome_CPDBAS_MultiCellCall_Details>
multisite active

>  <ChemicalPage_URL>
http://potency.berkeley.edu/chempages/NITROSOAMYLURETHAN.html

$$$$



 14 15  0  0  0  0  0  0  0  0999 V2000
    2.3043   -1.3287    0.0000 N   0  0  0  0  0  0  0  0  0  0  0  0
    3.4534   -1.9931    0.0000 N   0  0  0  0  0  0  0  0  0  0  0  0
    4.6086   -1.3287    0.0000 C   0  0  0  0  0  0  0  0  0  0  0  0
    5.7577   -1.9931    0.0000 C   0  0  0  0  0  0  0  0  0  0  0  0
    5.7577   -3.3278    0.0000 C   0  0  0  0  0  0  0  0  0  0  0  0
    4.6086   -3.9921    0.0000 C   0  0  0  0  0  0  0  0  0  0  0  0
    3.4534   -3.3278    0.0000 C   0  0  3  0  0  0  0  0  0  0  0  0
    2.3043   -3.9921    0.0000 C   0  0  0  0  0  0  0  0  0  0  0  0
    2.3043   -5.3208    0.0000 C   0  0  0  0  0  0  0  0  0  0  0  0
    1.1492   -5.9852    0.0000 C   0  0  0  0  0  0  0  0  0  0  0  0
    0.0000   -5.3208    0.0000 C   0  0  0  0  0  0  0  0  0  0  0  0
    0.0000   -3.9921    0.0000 N   0  0  0  0  0  0  0  0  0  0  0  0
    1.1492   -3.3278    0.0000 C   0  0  0  0  0  0  0  0  0  0  0  0
    2.3043    0.0000    0.0000 O   0  0  0  0  0  0  0  0  0  0  0  0
  1  2  1  0  0  0  0
  1 14  2  0  0  0  0
  2  3  1  0  0  0  0
  2  7  1  0  0  0  0
  3  4  1  0  0  0  0
  4  5  1  0  0  0  0
  5  6  1  0  0  0  0
  6  7  1  0  0  0  0
  7  8  1  0  0  0  0
  8  9  2  0  0  0  0
  8 13  1  0  0  0  0
  9 10  1  0  0  0  0
 10 11  2  0  0  0  0
 11 12  1  0  0  0  0
 12 13  2  0  0  0  0
M  END
>  <DSSTox_RID>
21019

>  <DSSTox_CID>
1019

>  <DSSTox_Generic_SID>
21019

>  <DSSTox_FileID>
1064_CPDBAS_v5d

>  <STRUCTURE_Formula>
C10H13N3O

>  <STRUCTURE_MolecularWeight>
191.2322

>  <STRUCTURE_ChemicalType>
defined organic

>  <STRUCTURE_TestedForm_DefinedOrganic>
parent

>  <STRUCTURE_Shown>
tested chemical

>  <TestSubstance_ChemicalName>
Nitrosoanabasine

>  <TestSubstance_CASRN>
1133-64-8

>  <TestSubstance_Description>
single chemical compound

>  <STRUCTURE_ChemicalName_IUPAC>
3-(1-nitrosopiperidin-2-yl)pyridine

>  <STRUCTURE_SMILES>
N(N1CCCCC1C2=CC=CN=C2)=O

>  <STRUCTURE_Parent_SMILES>
N(N1CCCCC1C2=CC=CN=C2)=O

>  <STRUCTURE_InChI>
InChI=1/C10H13N3O/c14-12-13-7-2-1-5-10(13)9-4-3-6-11-8-9/h3-4,6,8,10H,1-2,5,7H2

>  <STRUCTURE_InChIKey>
BXYPVKMROLGXJI-UHFFFAOYAH

>  <StudyType>
Carcinogenicity

>  <Endpoint>
TD50; Tumor Target Sites

>  <Species>
rat

>  <TD50_Rat_mg>
11.9

>  <TD50_Rat_mmol>
0.0622

>  <ActivityScore_CPDBAS_Rat>
38

>  <TD50_Rat_Note>
TD50 is harmonic mean of more than one positive test

>  <TargetSites_Rat_Male>
esophagus

>  <TargetSites_Rat_Female>
esophagus

>  <ActivityOutcome_CPDBAS_Rat>
active

>  <ActivityOutcome_CPDBAS_SingleCellCall>
active

>  <ActivityOutcome_CPDBAS_MultiCellCall>
active

>  <ActivityOutcome_CPDBAS_MultiCellCall_Details>
multisex active

>  <ChemicalPage_URL>
http://potency.berkeley.edu/chempages/NITROSOANABASINE.html

$$$$



 16 17  0  0  0  0  0  0  0  0999 V2000
    5.6781   -3.6371    0.0000 O   0  0  0  0  0  0  0  0  0  0  0  0
    6.3455   -2.4860    0.0000 C   0  0  0  0  0  0  0  0  0  0  0  0
    7.6804   -2.4860    0.0000 N   0  0  0  0  0  0  0  0  0  0  0  0
    8.3382   -3.6371    0.0000 C   0  0  0  0  0  0  0  0  0  0  0  0
    8.3382   -1.3349    0.0000 N   0  0  0  0  0  0  0  0  0  0  0  0
    9.6730   -1.3349    0.0000 O   0  0  0  0  0  0  0  0  0  0  0  0
    5.6781   -1.3349    0.0000 N   0  0  0  0  0  0  0  0  0  0  0  0
    4.3529   -1.3349    0.0000 C   0  0  0  0  0  0  0  0  0  0  0  0
    3.5694   -0.2612    0.0000 N   0  0  0  0  0  0  0  0  0  0  0  0
    2.3022   -0.6674    0.0000 C   0  0  0  0  0  0  0  0  0  0  0  0
    2.3022   -2.0023    0.0000 C   0  0  0  0  0  0  0  0  0  0  0  0
    3.5694   -2.4086    0.0000 S   0  0  0  0  0  0  0  0  0  0  0  0
    1.1511   -2.6601    0.0000 C   0  0  0  0  0  0  0  0  0  0  0  0
    0.0000   -2.0023    0.0000 C   0  0  0  0  0  0  0  0  0  0  0  0
    0.0000   -0.6674    0.0000 C   0  0  0  0  0  0  0  0  0  0  0  0
    1.1511    0.0000    0.0000 C   0  0  0  0  0  0  0  0  0  0  0  0
  1  2  2  0  0  0  0
  2  3  1  0  0  0  0
  2  7  1  0  0  0  0
  3  4  1  0  0  0  0
  3  5  1  0  0  0  0
  5  6  2  0  0  0  0
  7  8  1  0  0  0  0
  8  9  2  0  0  0  0
  8 12  1  0  0  0  0
  9 10  1  0  0  0  0
 10 11  2  0  0  0  0
 10 16  1  0  0  0  0
 11 12  1  0  0  0  0
 11 13  1  0  0  0  0
 13 14  2  0  0  0  0
 14 15  1  0  0  0  0
 15 16  2  0  0  0  0
M  END
>  <DSSTox_RID>
21020

>  <DSSTox_CID>
1020

>  <DSSTox_Generic_SID>
21020

>  <DSSTox_FileID>
1065_CPDBAS_v5d

>  <STRUCTURE_Formula>
C9H8N4O2S

>  <STRUCTURE_MolecularWeight>
236.2478

>  <STRUCTURE_ChemicalType>
defined organic

>  <STRUCTURE_TestedForm_DefinedOrganic>
parent

>  <STRUCTURE_Shown>
tested chemical

>  <TestSubstance_ChemicalName>
N-Nitrosobenzthiazuron

>  <TestSubstance_CASRN>
51542-33-7

>  <TestSubstance_Description>
single chemical compound

>  <STRUCTURE_ChemicalName_IUPAC>
3-(1,3-benzothiazol-2-yl)-1-methyl-1-nitrosourea

>  <STRUCTURE_SMILES>
O=C(N(C)N=O)NC1=NC2=C(S1)C=CC=C2

>  <STRUCTURE_Parent_SMILES>
O=C(N(C)N=O)NC1=NC2=C(S1)C=CC=C2

>  <STRUCTURE_InChI>
InChI=1/C9H8N4O2S/c1-13(12-15)9(14)11-8-10-6-4-2-3-5-7(6)16-8/h2-5H,1H3,(H,10,11,14)/f/h11H

>  <STRUCTURE_InChIKey>
WLIJZJZXWRTQIH-WXRBYKJCCS

>  <StudyType>
Carcinogenicity

>  <Endpoint>
TD50; Tumor Target Sites

>  <Species>
rat

>  <TD50_Rat_mg>
1.13

>  <TD50_Rat_mmol>
0.00478

>  <ActivityScore_CPDBAS_Rat>
50

>  <TargetSites_Rat_BothSexes>
stomach

>  <ActivityOutcome_CPDBAS_Rat>
active

>  <ActivityOutcome_CPDBAS_SingleCellCall>
active

>  <ChemicalPage_URL>
http://potency.berkeley.edu/chempages/N-NITROSOBENZTHIAZURON.html

$$$$



 11 10  0  0  0  0  0  0  0  0999 V2000
    5.3206    0.0000    0.0000 O   0  0  0  0  0  0  0  0  0  0  0  0
    3.9919    0.0000    0.0000 N   0  0  0  0  0  0  0  0  0  0  0  0
    3.3276   -1.1491    0.0000 N   0  0  0  0  0  0  0  0  0  0  0  0
    3.9919   -2.3042    0.0000 C   0  0  0  0  0  0  0  0  0  0  0  0
    5.3206   -2.3042    0.0000 C   0  0  3  0  0  0  0  0  0  0  0  0
    5.9849   -1.1491    0.0000 C   0  0  0  0  0  0  0  0  0  0  0  0
    5.9849   -3.4533    0.0000 O   0  0  0  0  0  0  0  0  0  0  0  0
    1.9930   -1.1491    0.0000 C   0  0  0  0  0  0  0  0  0  0  0  0
    1.3286   -2.3042    0.0000 C   0  0  3  0  0  0  0  0  0  0  0  0
    1.9930   -3.4533    0.0000 C   0  0  0  0  0  0  0  0  0  0  0  0
    0.0000   -2.3042    0.0000 O   0  0  0  0  0  0  0  0  0  0  0  0
  1  2  2  0  0  0  0
  2  3  1  0  0  0  0
  3  4  1  0  0  0  0
  3  8  1  0  0  0  0
  4  5  1  0  0  0  0
  5  6  1  0  0  0  0
  5  7  1  0  0  0  0
  8  9  1  0  0  0  0
  9 10  1  0  0  0  0
  9 11  1  0  0  0  0
M  END
>  <DSSTox_RID>
21021

>  <DSSTox_CID>
1021

>  <DSSTox_Generic_SID>
21021

>  <DSSTox_FileID>
1066_CPDBAS_v5d

>  <STRUCTURE_Formula>
C6H14N2O3

>  <STRUCTURE_MolecularWeight>
162.1882

>  <STRUCTURE_ChemicalType>
defined organic

>  <STRUCTURE_TestedForm_DefinedOrganic>
parent

>  <STRUCTURE_Shown>
tested chemical

>  <TestSubstance_ChemicalName>
N-Nitrosobis(2-hydroxypropyl)amine

>  <TestSubstance_CASRN>
53609-64-6

>  <TestSubstance_Description>
single chemical compound

>  <STRUCTURE_ChemicalName_IUPAC>
1,1'-(nitrosoimino)dipropan-2-ol

>  <STRUCTURE_SMILES>
O=NN(CC(C)O)CC(C)O

>  <STRUCTURE_Parent_SMILES>
O=NN(CC(C)O)CC(C)O

>  <STRUCTURE_InChI>
InChI=1/C6H14N2O3/c1-5(9)3-8(7-11)4-6(2)10/h5-6,9-10H,3-4H2,1-2H3

>  <STRUCTURE_InChIKey>
MNIGYIKCFSPQRJ-UHFFFAOYAA

>  <StudyType>
Carcinogenicity

>  <Endpoint>
TD50; Tumor Target Sites

>  <Species>
rat

>  <TD50_Rat_mg>
0.846

>  <TD50_Rat_mmol>
0.00522

>  <ActivityScore_CPDBAS_Rat>
49

>  <TD50_Rat_Note>
TD50 is harmonic mean of more than one positive test

>  <TargetSites_Rat_Male>
lung; prostate

>  <TargetSites_Rat_Female>
esophagus; nasal cavity

>  <ActivityOutcome_CPDBAS_Rat>
active

>  <ActivityOutcome_CPDBAS_SingleCellCall>
active

>  <ActivityOutcome_CPDBAS_MultiCellCall>
active

>  <ActivityOutcome_CPDBAS_MultiCellCall_Details>
multisite active; multisex active

>  <ChemicalPage_URL>
http://potency.berkeley.edu/chempages/N-NITROSOBIS(2-HYDROXYPROPYL)AMINE.html

$$$$



 11 10  0  0  0  0  0  0  0  0999 V2000
    5.3206    0.0000    0.0000 O   0  0  0  0  0  0  0  0  0  0  0  0
    3.9919    0.0000    0.0000 N   0  0  0  0  0  0  0  0  0  0  0  0
    3.3276   -1.1491    0.0000 N   0  0  0  0  0  0  0  0  0  0  0  0
    3.9919   -2.3042    0.0000 C   0  0  0  0  0  0  0  0  0  0  0  0
    5.3206   -2.3042    0.0000 C   0  0  0  0  0  0  0  0  0  0  0  0
    5.9849   -1.1491    0.0000 O   0  0  0  0  0  0  0  0  0  0  0  0
    5.9849   -3.4533    0.0000 C   0  0  0  0  0  0  0  0  0  0  0  0
    1.9930   -1.1491    0.0000 C   0  0  0  0  0  0  0  0  0  0  0  0
    1.3286   -2.3042    0.0000 C   0  0  0  0  0  0  0  0  0  0  0  0
    1.9930   -3.4533    0.0000 O   0  0  0  0  0  0  0  0  0  0  0  0
    0.0000   -2.3042    0.0000 C   0  0  0  0  0  0  0  0  0  0  0  0
  1  2  2  0  0  0  0
  2  3  1  0  0  0  0
  3  4  1  0  0  0  0
  3  8  1  0  0  0  0
  4  5  1  0  0  0  0
  5  6  2  0  0  0  0
  5  7  1  0  0  0  0
  8  9  1  0  0  0  0
  9 10  2  0  0  0  0
  9 11  1  0  0  0  0
M  END
>  <DSSTox_RID>
21022

>  <DSSTox_CID>
1022

>  <DSSTox_Generic_SID>
21022

>  <DSSTox_FileID>
1067_CPDBAS_v5d

>  <STRUCTURE_Formula>
C6H10N2O3

>  <STRUCTURE_MolecularWeight>
158.1566

>  <STRUCTURE_ChemicalType>
defined organic

>  <STRUCTURE_TestedForm_DefinedOrganic>
parent

>  <STRUCTURE_Shown>
tested chemical

>  <TestSubstance_ChemicalName>
N-Nitrosobis(2-oxopropyl)amine

>  <TestSubstance_CASRN>
60599-38-4

>  <TestSubstance_Description>
single chemical compound

>  <STRUCTURE_ChemicalName_IUPAC>
1,1'-(nitrosoimino)dipropan-2-one

>  <STRUCTURE_SMILES>
O=NN(CC(=O)C)CC(=O)C

>  <STRUCTURE_Parent_SMILES>
O=NN(CC(=O)C)CC(=O)C

>  <STRUCTURE_InChI>
InChI=1/C6H10N2O3/c1-5(9)3-8(7-11)4-6(2)10/h3-4H2,1-2H3

>  <STRUCTURE_InChIKey>
AKRYBBWYDSDZHG-UHFFFAOYAA

>  <StudyType>
Carcinogenicity

>  <Endpoint>
TD50; Tumor Target Sites

>  <Species>
rat

>  <TD50_Rat_mg>
0.491

>  <TD50_Rat_mmol>
0.0031

>  <ActivityScore_CPDBAS_Rat>
52

>  <TD50_Rat_Note>
TD50 is harmonic mean of more than one positive test

>  <TargetSites_Rat_Male>
large intestine; liver; lung; nasal cavity; prostate; thyroid gland; urinary bladder

>  <TargetSites_Rat_Female>
liver; lung; vascular system

>  <ActivityOutcome_CPDBAS_Rat>
active

>  <ActivityOutcome_CPDBAS_SingleCellCall>
active

>  <ActivityOutcome_CPDBAS_MultiCellCall>
active

>  <ActivityOutcome_CPDBAS_MultiCellCall_Details>
multisite active; multisex active

>  <ChemicalPage_URL>
http://potency.berkeley.edu/chempages/N-NITROSOBIS(2-OXOPROPYL)AMINE.html

$$$$



 13 12  0  0  0  0  0  0  0  0999 V2000
    3.8156    0.0000    0.0000 N   0  0  0  0  0  0  0  0  0  0  0  0
    3.1484   -1.1531    0.0000 N   0  0  0  0  0  0  0  0  0  0  0  0
    1.8203   -1.1531    0.0000 C   0  0  0  0  0  0  0  0  0  0  0  0
    1.1531   -2.2997    0.0000 C   0  0  0  0  0  0  0  0  0  0  0  0
    0.4859   -3.4528    0.0000 F   0  0  0  0  0  0  0  0  0  0  0  0
    0.0000   -1.6390    0.0000 F   0  0  0  0  0  0  0  0  0  0  0  0
    2.3062   -2.9670    0.0000 F   0  0  0  0  0  0  0  0  0  0  0  0
    3.8156   -2.2997    0.0000 C   0  0  0  0  0  0  0  0  0  0  0  0
    5.1436   -2.2997    0.0000 C   0  0  0  0  0  0  0  0  0  0  0  0
    5.1436   -0.9717    0.0000 F   0  0  0  0  0  0  0  0  0  0  0  0
    6.4781   -2.2997    0.0000 F   0  0  0  0  0  0  0  0  0  0  0  0
    5.1436   -3.6342    0.0000 F   0  0  0  0  0  0  0  0  0  0  0  0
    5.1436    0.0000    0.0000 O   0  0  0  0  0  0  0  0  0  0  0  0
  1  2  1  0  0  0  0
  1 13  2  0  0  0  0
  2  3  1  0  0  0  0
  2  8  1  0  0  0  0
  3  4  1  0  0  0  0
  4  5  1  0  0  0  0
  4  6  1  0  0  0  0
  4  7  1  0  0  0  0
  8  9  1  0  0  0  0
  9 10  1  0  0  0  0
  9 11  1  0  0  0  0
  9 12  1  0  0  0  0
M  END
>  <DSSTox_RID>
21023

>  <DSSTox_CID>
1023

>  <DSSTox_Generic_SID>
21023

>  <DSSTox_FileID>
1068_CPDBAS_v5d

>  <STRUCTURE_Formula>
C4H4F6N2O

>  <STRUCTURE_MolecularWeight>
210.0788

>  <STRUCTURE_ChemicalType>
defined organic

>  <STRUCTURE_TestedForm_DefinedOrganic>
parent

>  <STRUCTURE_Shown>
tested chemical

>  <TestSubstance_ChemicalName>
N-Nitrosobis(2,2,2-trifluoroethyl) amine

>  <TestSubstance_CASRN>
625-89-8

>  <TestSubstance_Description>
single chemical compound

>  <STRUCTURE_ChemicalName_IUPAC>
2,2,2-trifluoro-N-nitroso-N-(2,2,2-trifluoroethyl)ethanamine

>  <STRUCTURE_SMILES>
N(N(CC(F)(F)F)CC(F)(F)F)=O

>  <STRUCTURE_Parent_SMILES>
N(N(CC(F)(F)F)CC(F)(F)F)=O

>  <STRUCTURE_InChI>
InChI=1/C4H4F6N2O/c5-3(6,7)1-12(11-13)2-4(8,9)10/h1-2H2

>  <STRUCTURE_InChIKey>
YUEXLPFBTMPXCY-UHFFFAOYAH

>  <StudyType>
Carcinogenicity

>  <Endpoint>
TD50; Tumor Target Sites

>  <Species>
rat

>  <ActivityScore_CPDBAS_Rat>
0

>  <TD50_Rat_Note>
no positive results

>  <TargetSites_Rat_Male>
no positive results

>  <TargetSites_Rat_Female>
no positive results

>  <ActivityOutcome_CPDBAS_Rat>
inactive

>  <ActivityOutcome_CPDBAS_SingleCellCall>
inactive

>  <ActivityOutcome_CPDBAS_MultiCellCall>
inactive

>  <ActivityOutcome_CPDBAS_MultiCellCall_Details>
multisex inactive

>  <ChemicalPage_URL>
http://potency.berkeley.edu/chempages/N-NITROSOBIS(2,2,2-TRIFLUOROETHYL)AMINE.html

$$$$



 23 25  0  0  0  0  0  0  0  0999 V2000
    0.0000   -5.3817    0.0000 O   0  0  0  0  0  0  0  0  0  0  0  0
    1.3182   -5.1835    0.0000 N   0  0  0  0  0  0  0  0  0  0  0  0
    1.8038   -3.9446    0.0000 N   0  0  0  0  0  0  0  0  0  0  0  0
    3.1121   -3.7464    0.0000 C   0  0  0  0  0  0  0  0  0  0  0  0
    3.5085   -2.4778    0.0000 N   0  0  0  0  0  0  0  0  0  0  0  0
    4.7474   -1.9921    0.0000 C   0  0  0  0  0  0  0  0  0  0  0  0
    4.7474   -0.6640    0.0000 C   0  0  0  0  0  0  0  0  0  0  0  0
    5.8971    0.0000    0.0000 C   0  0  0  0  0  0  0  0  0  0  0  0
    7.0468   -0.6640    0.0000 C   0  0  0  0  0  0  0  0  0  0  0  0
    7.0468   -1.9921    0.0000 C   0  0  0  0  0  0  0  0  0  0  0  0
    5.8971   -2.6562    0.0000 C   0  0  0  0  0  0  0  0  0  0  0  0
    6.0953   -3.9744    0.0000 C   0  0  0  0  0  0  0  0  0  0  0  0
    5.1934   -4.9457    0.0000 N   0  3  0  0  0  0  0  0  0  0  0  0
    3.8653   -4.8465    0.0000 C   0  0  0  0  0  0  0  0  0  0  0  0
    5.6791   -6.1845    0.0000 O   0  5  0  0  0  0  0  0  0  0  0  0
    7.3640   -4.3609    0.0000 C   0  0  0  0  0  0  0  0  0  0  0  0
    8.3452   -3.4590    0.0000 C   0  0  0  0  0  0  0  0  0  0  0  0
    9.6138   -3.8554    0.0000 C   0  0  0  0  0  0  0  0  0  0  0  0
    9.9111   -5.1439    0.0000 C   0  0  0  0  0  0  0  0  0  0  0  0
    8.9398   -6.0557    0.0000 C   0  0  0  0  0  0  0  0  0  0  0  0
    7.6613   -5.6593    0.0000 C   0  0  0  0  0  0  0  0  0  0  0  0
    8.2064    0.0000    0.0000 Cl  0  0  0  0  0  0  0  0  0  0  0  0
    0.9713   -2.9040    0.0000 C   0  0  0  0  0  0  0  0  0  0  0  0
  1  2  2  0  0  0  0
  2  3  1  0  0  0  0
  3  4  1  0  0  0  0
  3 23  1  0  0  0  0
  4  5  2  0  0  0  0
  4 14  1  0  0  0  0
  5  6  1  0  0  0  0
  6  7  2  0  0  0  0
  6 11  1  0  0  0  0
  7  8  1  0  0  0  0
  8  9  2  0  0  0  0
  9 10  1  0  0  0  0
  9 22  1  0  0  0  0
 10 11  2  0  0  0  0
 11 12  1  0  0  0  0
 12 13  2  0  0  0  0
 12 16  1  0  0  0  0
 13 14  1  0  0  0  0
 13 15  1  0  0  0  0
 16 17  2  0  0  0  0
 16 21  1  0  0  0  0
 17 18  1  0  0  0  0
 18 19  2  0  0  0  0
 19 20  1  0  0  0  0
 20 21  2  0  0  0  0
M  END
>  <DSSTox_RID>
21024

>  <DSSTox_CID>
1024

>  <DSSTox_Generic_SID>
21024

>  <DSSTox_FileID>
1069_CPDBAS_v5d

>  <STRUCTURE_Formula>
C16H14ClN4O2+

>  <STRUCTURE_MolecularWeight>
329.7652

>  <STRUCTURE_ChemicalType>
defined organic

>  <STRUCTURE_TestedForm_DefinedOrganic>
parent

>  <STRUCTURE_Shown>
tested chemical

>  <TestSubstance_ChemicalName>
Nitrosochlordiazepoxide

>  <TestSubstance_CASRN>
51715-17-4

>  <TestSubstance_Description>
single chemical compound

>  <ChemicalNote>
ammonium

>  <STRUCTURE_ChemicalName_IUPAC>
7-chloro-N-methyl-N-nitroso-5-phenyl-3H-1,4-benzodiazepin-2-amine 4-oxide

>  <STRUCTURE_SMILES>
O=NN(C)C2=NC1=CC=C(Cl)C=C1C(C3=CC=CC=C3)=[N+]([O-])C2

>  <STRUCTURE_Parent_SMILES>
O=NN(C)C2=NC1=CC=C(Cl)C=C1C(C3=CC=CC=C3)=[N+]([O-])C2

>  <STRUCTURE_InChI>
InChI=1/C16H13ClN4O2/c1-20(19-22)15-10-21(23)16(11-5-3-2-4-6-11)13-9-12(17)7-8-14(13)18-15/h2-9H,10H2,1H3

>  <STRUCTURE_InChIKey>
VGNMVQBFGJATJZ-UHFFFAOYAW

>  <StudyType>
Carcinogenicity

>  <Endpoint>
TD50; Tumor Target Sites

>  <Species>
mouse

>  <ActivityScore_CPDBAS_Mouse>
0

>  <TD50_Mouse_Note>
no positive results

>  <TargetSites_Mouse_Male>
no positive results

>  <TargetSites_Mouse_Female>
no positive results

>  <ActivityOutcome_CPDBAS_Mouse>
inactive

>  <ActivityOutcome_CPDBAS_SingleCellCall>
inactive

>  <ActivityOutcome_CPDBAS_MultiCellCall>
inactive

>  <ActivityOutcome_CPDBAS_MultiCellCall_Details>
multisex inactive

>  <ChemicalPage_URL>
http://potency.berkeley.edu/chempages/NITROSOCHLORDIAZEPOXIDE.html

$$$$



 19 19  0  0  0  0  0  0  0  0999 V2000
    8.8550    0.0000    0.0000 O   0  0  0  0  0  0  0  0  0  0  0  0
    8.1871   -1.1515    0.0000 N   0  0  0  0  0  0  0  0  0  0  0  0
    8.8550   -2.3030    0.0000 N   0  0  0  0  0  0  0  0  0  0  0  0
    8.1871   -3.4545    0.0000 C   0  0  0  0  0  0  0  0  0  0  0  0
    8.8550   -4.6060    0.0000 N   0  0  0  0  0  0  0  0  0  0  0  0
   10.1907   -4.6060    0.0000 C   0  0  0  0  0  0  0  0  0  0  0  0
   11.5149   -4.6060    0.0000 N   0  0  0  0  0  0  0  0  0  0  0  0
    6.8629   -3.4545    0.0000 N   0  0  0  0  0  0  0  0  0  0  0  0
    6.1950   -4.6060    0.0000 C   0  0  0  0  0  0  0  0  0  0  0  0
    4.8708   -4.6060    0.0000 C   0  0  0  0  0  0  0  0  0  0  0  0
    4.2029   -5.7575    0.0000 S   0  0  0  0  0  0  0  0  0  0  0  0
    2.8787   -5.7575    0.0000 C   0  0  0  0  0  0  0  0  0  0  0  0
    2.2109   -4.6060    0.0000 C   0  0  0  0  0  0  0  0  0  0  0  0
    0.8866   -4.4678    0.0000 C   0  0  0  0  0  0  0  0  0  0  0  0
    0.6103   -3.1666    0.0000 N   0  0  0  0  0  0  0  0  0  0  0  0
    1.7618   -2.4987    0.0000 C   0  0  0  0  0  0  0  0  0  0  0  0
    2.7521   -3.3969    0.0000 N   0  0  0  0  0  0  0  0  0  0  0  0
    0.0000   -5.4581    0.0000 C   0  0  0  0  0  0  0  0  0  0  0  0
   10.1907   -2.3030    0.0000 C   0  0  0  0  0  0  0  0  0  0  0  0
  1  2  2  0  0  0  0
  2  3  1  0  0  0  0
  3  4  1  0  0  0  0
  3 19  1  0  0  0  0
  4  5  2  0  0  0  0
  4  8  1  0  0  0  0
  5  6  1  0  0  0  0
  6  7  3  0  0  0  0
  8  9  1  0  0  0  0
  9 10  1  0  0  0  0
 10 11  1  0  0  0  0
 11 12  1  0  0  0  0
 12 13  1  0  0  0  0
 13 14  2  0  0  0  0
 13 17  1  0  0  0  0
 14 15  1  0  0  0  0
 14 18  1  0  0  0  0
 15 16  2  0  0  0  0
 16 17  1  0  0  0  0
M  END
>  <DSSTox_RID>
21025

>  <DSSTox_CID>
1025

>  <DSSTox_Generic_SID>
21025

>  <DSSTox_FileID>
1070_CPDBAS_v5d

>  <STRUCTURE_Formula>
C10H15N7OS

>  <STRUCTURE_MolecularWeight>
281.3348

>  <STRUCTURE_ChemicalType>
defined organic

>  <STRUCTURE_TestedForm_DefinedOrganic>
parent

>  <STRUCTURE_Shown>
tested chemical

>  <TestSubstance_ChemicalName>
N-Nitrosocimetidine

>  <TestSubstance_CASRN>
73785-40-7

>  <TestSubstance_Description>
single chemical compound

>  <STRUCTURE_ChemicalName_IUPAC>
2-cyano-1-methyl-3-(2-{[(4-methyl-1H-imidazol-5-yl)methyl]thio}ethyl)-1-nitrosoguanidine

>  <STRUCTURE_SMILES>
O=NN(/C(=N\C#N)NCCSCC1=C(N=CN1)C)C

>  <STRUCTURE_Parent_SMILES>
O=NN(/C(=N\C#N)NCCSCC1=C(N=CN1)C)C

>  <STRUCTURE_InChI>
InChI=1/C10H15N7OS/c1-8-9(15-7-14-8)5-19-4-3-12-10(13-6-11)17(2)16-18/h7H,3-5H2,1-2H3,(H,12,13)(H,14,15)/f/h12,15H/b13-10-

>  <STRUCTURE_InChIKey>
LFTUYYPQNCJQGN-WTSYUPNIDA

>  <StudyType>
Carcinogenicity

>  <Endpoint>
TD50; Tumor Target Sites

>  <Species>
rat; mouse

>  <ActivityScore_CPDBAS_Rat>
0

>  <TD50_Rat_Note>
no positive results

>  <TargetSites_Rat_Male>
no positive results

>  <TargetSites_Rat_Female>
no positive results

>  <ActivityOutcome_CPDBAS_Rat>
inactive

>  <ActivityScore_CPDBAS_Mouse>
0

>  <TD50_Mouse_Note>
no positive results

>  <TargetSites_Mouse_Female>
no positive results

>  <ActivityOutcome_CPDBAS_Mouse>
inactive

>  <ActivityOutcome_CPDBAS_SingleCellCall>
inactive

>  <ActivityOutcome_CPDBAS_MultiCellCall>
inactive

>  <ActivityOutcome_CPDBAS_MultiCellCall_Details>
multisex inactive; multispecies inactive

>  <ChemicalPage_URL>
http://potency.berkeley.edu/chempages/N-NITROSOCIMETIDINE.html

$$$$



 11 10  0  0  0  0  0  0  0  0999 V2000
    5.7570   -0.6635    0.0000 O   0  0  0  0  0  0  0  0  0  0  0  0
    4.6098    0.0000    0.0000 N   0  0  0  0  0  0  0  0  0  0  0  0
    3.4556   -0.6635    0.0000 N   0  0  0  0  0  0  0  0  0  0  0  0
    3.4556   -1.9973    0.0000 C   0  0  0  0  0  0  0  0  0  0  0  0
    4.6098   -2.6608    0.0000 C   0  0  0  0  0  0  0  0  0  0  0  0
    5.7570   -1.9973    0.0000 C   0  0  0  0  0  0  0  0  0  0  0  0
    6.9112   -2.6608    0.0000 C   0  0  0  0  0  0  0  0  0  0  0  0
    2.3014    0.0000    0.0000 C   0  0  0  0  0  0  0  0  0  0  0  0
    1.1542   -0.6635    0.0000 C   0  0  0  0  0  0  0  0  0  0  0  0
    1.1542   -1.9973    0.0000 C   0  0  0  0  0  0  0  0  0  0  0  0
    0.0000   -2.6608    0.0000 C   0  0  0  0  0  0  0  0  0  0  0  0
  1  2  2  0  0  0  0
  2  3  1  0  0  0  0
  3  4  1  0  0  0  0
  3  8  1  0  0  0  0
  4  5  1  0  0  0  0
  5  6  1  0  0  0  0
  6  7  1  0  0  0  0
  8  9  1  0  0  0  0
  9 10  1  0  0  0  0
 10 11  1  0  0  0  0
M  END
>  <DSSTox_RID>
21026

>  <DSSTox_CID>
1026

>  <DSSTox_Generic_SID>
21026

>  <DSSTox_FileID>
1071_CPDBAS_v5d

>  <STRUCTURE_Formula>
C8H18N2O

>  <STRUCTURE_MolecularWeight>
158.243

>  <STRUCTURE_ChemicalType>
defined organic

>  <STRUCTURE_TestedForm_DefinedOrganic>
parent

>  <STRUCTURE_Shown>
tested chemical

>  <TestSubstance_ChemicalName>
Nitrosodibutylamine

>  <TestSubstance_CASRN>
924-16-3

>  <TestSubstance_Description>
single chemical compound

>  <STRUCTURE_ChemicalName_IUPAC>
N-butyl-N-nitrosobutan-1-amine

>  <STRUCTURE_SMILES>
O=NN(CCCC)CCCC

>  <STRUCTURE_Parent_SMILES>
O=NN(CCCC)CCCC

>  <STRUCTURE_InChI>
InChI=1/C8H18N2O/c1-3-5-7-10(9-11)8-6-4-2/h3-8H2,1-2H3

>  <STRUCTURE_InChIKey>
YGJHZCLPZAZIHH-UHFFFAOYAQ

>  <StudyType>
Carcinogenicity

>  <Endpoint>
TD50; Tumor Target Sites

>  <Species>
rat; mouse

>  <ActivityOutcome_CPDBAS_Mutagenicity>
active

>  <TD50_Rat_mg>
0.691

>  <TD50_Rat_mmol>
0.00437

>  <ActivityScore_CPDBAS_Rat>
50

>  <TargetSites_Rat_Male>
liver; lung; stomach; urinary bladder

>  <ActivityOutcome_CPDBAS_Rat>
active

>  <TD50_Mouse_mg>
1.09

>  <TD50_Mouse_mmol>
0.00689

>  <ActivityScore_CPDBAS_Mouse>
53

>  <TargetSites_Mouse_Male>
esophagus; liver; lung; stomach

>  <ActivityOutcome_CPDBAS_Mouse>
active

>  <ActivityOutcome_CPDBAS_SingleCellCall>
active

>  <ActivityOutcome_CPDBAS_MultiCellCall>
active

>  <ActivityOutcome_CPDBAS_MultiCellCall_Details>
multisite active; multispecies active

>  <ChemicalPage_URL>
http://potency.berkeley.edu/chempages/NITROSODIBUTYLAMINE.html

$$$$



  9  8  0  0  0  0  0  0  0  0999 V2000
    0.0000   -1.9953    0.0000 O   0  0  0  0  0  0  0  0  0  0  0  0
    1.1520   -2.6588    0.0000 N   0  0  0  0  0  0  0  0  0  0  0  0
    2.3040   -1.9953    0.0000 N   0  0  0  0  0  0  0  0  0  0  0  0
    2.3040   -0.6635    0.0000 C   0  0  0  0  0  0  0  0  0  0  0  0
    1.1520    0.0000    0.0000 C   0  0  0  0  0  0  0  0  0  0  0  0
    0.0000   -0.6635    0.0000 O   0  0  0  0  0  0  0  0  0  0  0  0
    3.4560   -2.6588    0.0000 C   0  0  0  0  0  0  0  0  0  0  0  0
    4.6080   -1.9953    0.0000 C   0  0  0  0  0  0  0  0  0  0  0  0
    4.6080   -0.6635    0.0000 O   0  0  0  0  0  0  0  0  0  0  0  0
  1  2  2  0  0  0  0
  2  3  1  0  0  0  0
  3  4  1  0  0  0  0
  3  7  1  0  0  0  0
  4  5  1  0  0  0  0
  5  6  1  0  0  0  0
  7  8  1  0  0  0  0
  8  9  1  0  0  0  0
M  END
>  <DSSTox_RID>
21027

>  <DSSTox_CID>
1027

>  <DSSTox_Generic_SID>
21027

>  <DSSTox_FileID>
1072_CPDBAS_v5d

>  <STRUCTURE_Formula>
C4H10N2O3

>  <STRUCTURE_MolecularWeight>
134.1338

>  <STRUCTURE_ChemicalType>
defined organic

>  <STRUCTURE_TestedForm_DefinedOrganic>
parent

>  <STRUCTURE_Shown>
tested chemical

>  <TestSubstance_ChemicalName>
N-Nitrosodiethanolamine

>  <TestSubstance_CASRN>
1116-54-7

>  <TestSubstance_Description>
single chemical compound

>  <STRUCTURE_ChemicalName_IUPAC>
2,2'-(nitrosoimino)diethanol

>  <STRUCTURE_SMILES>
O=NN(CCO)CCO

>  <STRUCTURE_Parent_SMILES>
O=NN(CCO)CCO

>  <STRUCTURE_InChI>
InChI=1/C4H10N2O3/c7-3-1-6(5-9)2-4-8/h7-8H,1-4H2

>  <STRUCTURE_InChIKey>
YFCDLVPYFMHRQZ-UHFFFAOYAS

>  <StudyType>
Carcinogenicity

>  <Endpoint>
TD50; Tumor Target Sites

>  <Species>
rat

>  <ActivityOutcome_CPDBAS_Mutagenicity>
active

>  <TD50_Rat_mg>
3.17

>  <TD50_Rat_mmol>
0.0236

>  <ActivityScore_CPDBAS_Rat>
43

>  <TD50_Rat_Note>
TD50 is harmonic mean of more than one positive test; greater than ten-fold variation among TD50 values for positive results

>  <TargetSites_Rat_Male>
esophagus; hematopoietic system; kidney; liver; nasal cavity; nervous system; vascular system

>  <TargetSites_Rat_Female>
esophagus; kidney; liver; nasal cavity

>  <ActivityOutcome_CPDBAS_Rat>
active

>  <ActivityOutcome_CPDBAS_SingleCellCall>
active

>  <ActivityOutcome_CPDBAS_MultiCellCall>
active

>  <ActivityOutcome_CPDBAS_MultiCellCall_Details>
multisite active; multisex active

>  <ChemicalPage_URL>
http://potency.berkeley.edu/chempages/N-NITROSODIETHANOLAMINE.html

$$$$



  7  6  0  0  0  0  0  0  0  0999 V2000
    3.9928    0.0000    0.0000 C   0  0  0  0  0  0  0  0  0  0  0  0
    2.6632    0.0000    0.0000 C   0  0  0  0  0  0  0  0  0  0  0  0
    1.9964   -1.1499    0.0000 N   0  0  0  0  0  0  0  0  0  0  0  0
    2.6632   -2.3038    0.0000 C   0  0  0  0  0  0  0  0  0  0  0  0
    3.9928   -2.3038    0.0000 C   0  0  0  0  0  0  0  0  0  0  0  0
    0.6668   -1.1499    0.0000 N   0  0  0  0  0  0  0  0  0  0  0  0
    0.0000    0.0000    0.0000 O   0  0  0  0  0  0  0  0  0  0  0  0
  1  2  1  0  0  0  0
  2  3  1  0  0  0  0
  3  4  1  0  0  0  0
  3  6  1  0  0  0  0
  4  5  1  0  0  0  0
  6  7  2  0  0  0  0
M  END
>  <DSSTox_RID>
21028

>  <DSSTox_CID>
1028

>  <DSSTox_Generic_SID>
21028

>  <DSSTox_FileID>
1073_CPDBAS_v5d

>  <STRUCTURE_Formula>
C4H10N2O

>  <STRUCTURE_MolecularWeight>
102.135

>  <STRUCTURE_ChemicalType>
defined organic

>  <STRUCTURE_TestedForm_DefinedOrganic>
parent

>  <STRUCTURE_Shown>
tested chemical

>  <TestSubstance_ChemicalName>
N-Nitrosodiethylamine

>  <TestSubstance_CASRN>
55-18-5

>  <TestSubstance_Description>
single chemical compound

>  <STRUCTURE_ChemicalName_IUPAC>
N-ethyl-N-nitrosoethanamine

>  <STRUCTURE_SMILES>
CCN(CC)N=O

>  <STRUCTURE_Parent_SMILES>
CCN(CC)N=O

>  <STRUCTURE_InChI>
InChI=1/C4H10N2O/c1-3-6(4-2)5-7/h3-4H2,1-2H3

>  <STRUCTURE_InChIKey>
WBNQDOYYEUMPFS-UHFFFAOYAG

>  <StudyType>
Carcinogenicity

>  <Endpoint>
TD50; Tumor Target Sites

>  <Species>
rat; rhesus; cynomolgus; bush baby

>  <ActivityOutcome_CPDBAS_Mutagenicity>
active

>  <TD50_Rat_mg>
0.0265

>  <TD50_Rat_mmol>
0.000259

>  <ActivityScore_CPDBAS_Rat>
63

>  <TD50_Rat_Note>
TD50 is harmonic mean of more than one positive test; greater than ten-fold variation among TD50 values for positive results

>  <TargetSites_Rat_Male>
esophagus; kidney; liver; vascular system

>  <TargetSites_Rat_Female>
esophagus; liver; oral cavity; stomach

>  <ActivityOutcome_CPDBAS_Rat>
active

>  <TD50_Rhesus_mg>
0.0536

>  <TargetSites_Rhesus>
liver

>  <TD50_Cynomolgus_mg>
0.00725

>  <TargetSites_Cynomolgus>
liver

>  <TD50_Dog_Primates_Note>
TD50 is harmonic mean of more than one positive test for Rhesus and Cynomolgus; greater than ten-fold variation among TD50 values for positive results for Rhesus and Cynomolgus; Bush Baby (TD50=0.012;positive test results only by intraperitoneal or intravenous injection; Target Site=nasal cavity)

>  <ActivityOutcome_CPDBAS_Dog_Primates>
active

>  <ActivityOutcome_CPDBAS_SingleCellCall>
active

>  <ActivityOutcome_CPDBAS_MultiCellCall>
active

>  <ActivityOutcome_CPDBAS_MultiCellCall_Details>
multisite active; multisex active; multispecies active

>  <Note_CPDBAS>
Bush Baby added v3a; TD50_Dog_Primates_Note modified v5a

>  <ChemicalPage_URL>
http://potency.berkeley.edu/chempages/N-NITROSODIETHYLAMINE.html

$$$$



  5  4  0  0  0  0  0  0  0  0999 V2000
    3.4567   -1.9945    0.0000 C   0  0  0  0  0  0  0  0  0  0  0  0
    2.3056   -1.3308    0.0000 N   0  0  0  0  0  0  0  0  0  0  0  0
    1.1511   -1.9945    0.0000 N   0  0  0  0  0  0  0  0  0  0  0  0
    0.0000   -1.3308    0.0000 O   0  0  0  0  0  0  0  0  0  0  0  0
    2.3056    0.0000    0.0000 C   0  0  0  0  0  0  0  0  0  0  0  0
  1  2  1  0  0  0  0
  2  3  1  0  0  0  0
  2  5  1  0  0  0  0
  3  4  2  0  0  0  0
M  END
>  <DSSTox_RID>
21029

>  <DSSTox_CID>
1029

>  <DSSTox_Generic_SID>
21029

>  <DSSTox_FileID>
1074_CPDBAS_v5d

>  <STRUCTURE_Formula>
C2H6N2O

>  <STRUCTURE_MolecularWeight>
74.0818

>  <STRUCTURE_ChemicalType>
defined organic

>  <STRUCTURE_TestedForm_DefinedOrganic>
parent

>  <STRUCTURE_Shown>
tested chemical

>  <TestSubstance_ChemicalName>
N-Nitrosodimethylamine

>  <TestSubstance_CASRN>
62-75-9

>  <TestSubstance_Description>
single chemical compound

>  <STRUCTURE_ChemicalName_IUPAC>
N-methyl-N-nitrosomethanamine

>  <STRUCTURE_SMILES>
CN(N=O)C

>  <STRUCTURE_Parent_SMILES>
CN(N=O)C

>  <STRUCTURE_InChI>
InChI=1/C2H6N2O/c1-4(2)3-5/h1-2H3

>  <STRUCTURE_InChIKey>
UMFJAHHVKNCGLG-UHFFFAOYAI

>  <StudyType>
Carcinogenicity

>  <Endpoint>
TD50; Tumor Target Sites

>  <Species>
rat; mouse; rhesus

>  <ActivityOutcome_CPDBAS_Mutagenicity>
active

>  <TD50_Rat_mg>
0.0959

>  <TD50_Rat_mmol>
0.00129

>  <ActivityScore_CPDBAS_Rat>
56

>  <TD50_Rat_Note>
TD50 is harmonic mean of more than one positive test; greater than ten-fold variation among TD50 values for positive results

>  <TargetSites_Rat_Male>
kidney; liver; lung; testes; vascular system

>  <TargetSites_Rat_Female>
liver; vascular system

>  <ActivityOutcome_CPDBAS_Rat>
active

>  <TD50_Mouse_mg>
0.189

>  <TD50_Mouse_mmol>
0.00255

>  <ActivityScore_CPDBAS_Mouse>
58

>  <TD50_Mouse_Note>
TD50 is harmonic mean of more than one positive test

>  <TargetSites_Mouse_Male>
liver; nervous system

>  <TargetSites_Mouse_Female>
lung; nervous system

>  <ActivityOutcome_CPDBAS_Mouse>
active

>  <TargetSites_Rhesus>
no positive results

>  <TD50_Dog_Primates_Note>
no positive results for Rhesus

>  <ActivityOutcome_CPDBAS_Dog_Primates>
inactive

>  <ActivityOutcome_CPDBAS_SingleCellCall>
active

>  <ActivityOutcome_CPDBAS_MultiCellCall>
active

>  <ActivityOutcome_CPDBAS_MultiCellCall_Details>
multisite active; multisex active; multispecies active

>  <Note_CPDBAS>
species modified v3a

>  <ChemicalPage_URL>
http://potency.berkeley.edu/chempages/N-NITROSODIMETHYLAMINE.html

$$$$



 15 16  0  0  0  0  0  0  0  0999 V2000
    2.3008    0.0000    0.0000 O   0  0  0  0  0  0  0  0  0  0  0  0
    3.4546   -0.6702    0.0000 N   0  0  0  0  0  0  0  0  0  0  0  0
    3.4546   -1.9968    0.0000 N   0  0  0  0  0  0  0  0  0  0  0  0
    4.6085   -2.6601    0.0000 C   0  0  0  0  0  0  0  0  0  0  0  0
    5.7554   -1.9968    0.0000 C   0  0  0  0  0  0  0  0  0  0  0  0
    6.9093   -2.6601    0.0000 C   0  0  0  0  0  0  0  0  0  0  0  0
    6.9093   -3.9935    0.0000 C   0  0  0  0  0  0  0  0  0  0  0  0
    5.7554   -4.6568    0.0000 C   0  0  0  0  0  0  0  0  0  0  0  0
    4.6085   -3.9935    0.0000 C   0  0  0  0  0  0  0  0  0  0  0  0
    2.3008   -2.6601    0.0000 C   0  0  0  0  0  0  0  0  0  0  0  0
    2.3008   -3.9935    0.0000 C   0  0  0  0  0  0  0  0  0  0  0  0
    1.1538   -4.6568    0.0000 C   0  0  0  0  0  0  0  0  0  0  0  0
    0.0000   -3.9935    0.0000 C   0  0  0  0  0  0  0  0  0  0  0  0
    0.0000   -2.6601    0.0000 C   0  0  0  0  0  0  0  0  0  0  0  0
    1.1538   -1.9968    0.0000 C   0  0  0  0  0  0  0  0  0  0  0  0
  1  2  2  0  0  0  0
  2  3  1  0  0  0  0
  3  4  1  0  0  0  0
  3 10  1  0  0  0  0
  4  5  2  0  0  0  0
  4  9  1  0  0  0  0
  5  6  1  0  0  0  0
  6  7  2  0  0  0  0
  7  8  1  0  0  0  0
  8  9  2  0  0  0  0
 10 11  2  0  0  0  0
 10 15  1  0  0  0  0
 11 12  1  0  0  0  0
 12 13  2  0  0  0  0
 13 14  1  0  0  0  0
 14 15  2  0  0  0  0
M  END
>  <DSSTox_RID>
21030

>  <DSSTox_CID>
1030

>  <DSSTox_Generic_SID>
21030

>  <DSSTox_FileID>
1075_CPDBAS_v5d

>  <STRUCTURE_Formula>
C12H10N2O

>  <STRUCTURE_MolecularWeight>
198.2206

>  <STRUCTURE_ChemicalType>
defined organic

>  <STRUCTURE_TestedForm_DefinedOrganic>
parent

>  <STRUCTURE_Shown>
tested chemical

>  <TestSubstance_ChemicalName>
N-Nitrosodiphenylamine

>  <TestSubstance_CASRN>
86-30-6

>  <TestSubstance_Description>
single chemical compound

>  <STRUCTURE_ChemicalName_IUPAC>
N-nitroso-N-phenylaniline

>  <STRUCTURE_SMILES>
O=NN(C1=CC=CC=C1)C2=CC=CC=C2

>  <STRUCTURE_Parent_SMILES>
O=NN(C1=CC=CC=C1)C2=CC=CC=C2

>  <STRUCTURE_InChI>
InChI=1/C12H10N2O/c15-13-14(11-7-3-1-4-8-11)12-9-5-2-6-10-12/h1-10H

>  <STRUCTURE_InChIKey>
UBUCNCOMADRQHX-UHFFFAOYAX

>  <StudyType>
Carcinogenicity

>  <Endpoint>
TD50; Tumor Target Sites

>  <Species>
rat; mouse

>  <ActivityOutcome_CPDBAS_Mutagenicity>
inactive

>  <TD50_Rat_mg>
167

>  <TD50_Rat_mmol>
0.842

>  <ActivityScore_CPDBAS_Rat>
26

>  <TD50_Rat_Note>
TD50 is harmonic mean of more than one positive test

>  <TargetSites_Rat_Male>
urinary bladder

>  <TargetSites_Rat_Female>
urinary bladder

>  <ActivityOutcome_CPDBAS_Rat>
active

>  <ActivityScore_CPDBAS_Mouse>
0

>  <TD50_Mouse_Note>
no positive results

>  <TargetSites_Mouse_Male>
no positive results

>  <TargetSites_Mouse_Female>
no positive results

>  <ActivityOutcome_CPDBAS_Mouse>
inactive

>  <ActivityOutcome_CPDBAS_SingleCellCall>
active

>  <ActivityOutcome_CPDBAS_MultiCellCall>
active

>  <ActivityOutcome_CPDBAS_MultiCellCall_Details>
multisex active

>  <NTP_TechnicalReport>
TR 164

>  <ChemicalPage_URL>
http://potency.berkeley.edu/chempages/N-NITROSODIPHENYLAMINE.html

$$$$



 15 16  0  0  0  0  0  0  0  0999 V2000
    4.1413   -0.4181    0.0000 N   0  0  0  0  0  0  0  0  0  0  0  0
    5.6048   -1.2544    0.0000 C   0  0  0  0  0  0  0  0  0  0  0  0
    6.7297   -0.6073    0.0000 C   0  0  0  0  0  0  0  0  0  0  0  0
    7.8546   -1.2544    0.0000 C   0  0  0  0  0  0  0  0  0  0  0  0
    7.8546   -2.5585    0.0000 C   0  0  0  0  0  0  0  0  0  0  0  0
    6.7297   -3.2056    0.0000 C   0  0  0  0  0  0  0  0  0  0  0  0
    5.6048   -2.5585    0.0000 C   0  0  0  0  0  0  0  0  0  0  0  0
    8.9796   -3.2056    0.0000 N   0  0  0  0  0  0  0  0  0  0  0  0
    2.5585   -0.9955    0.0000 C   0  0  0  0  0  0  0  0  0  0  0  0
    2.1105   -2.2100    0.0000 C   0  0  0  0  0  0  0  0  0  0  0  0
    0.8362   -2.4390    0.0000 C   0  0  0  0  0  0  0  0  0  0  0  0
    0.0000   -1.4435    0.0000 C   0  0  0  0  0  0  0  0  0  0  0  0
    0.4480   -0.2190    0.0000 C   0  0  0  0  0  0  0  0  0  0  0  0
    1.7222    0.0000    0.0000 C   0  0  0  0  0  0  0  0  0  0  0  0
    9.9552   -2.8870    0.0000 O   0  0  0  0  0  0  0  0  0  0  0  0
  1  2  1  0  0  0  0
  1  9  1  0  0  0  0
  2  3  1  0  0  0  0
  2  7  2  0  0  0  0
  3  4  2  0  0  0  0
  4  5  1  0  0  0  0
  5  6  2  0  0  0  0
  5  8  1  0  0  0  0
  6  7  1  0  0  0  0
  8 15  2  0  0  0  0
  9 10  2  0  0  0  0
  9 14  1  0  0  0  0
 10 11  1  0  0  0  0
 11 12  2  0  0  0  0
 12 13  1  0  0  0  0
 13 14  2  0  0  0  0
M  END
>  <DSSTox_RID>
21031

>  <DSSTox_CID>
1031

>  <DSSTox_Generic_SID>
21031

>  <DSSTox_FileID>
1076_CPDBAS_v5d

>  <STRUCTURE_Formula>
C12H10N2O

>  <STRUCTURE_MolecularWeight>
198.2206

>  <STRUCTURE_ChemicalType>
defined organic

>  <STRUCTURE_TestedForm_DefinedOrganic>
parent

>  <STRUCTURE_Shown>
tested chemical

>  <TestSubstance_ChemicalName>
p-Nitrosodiphenylamine

>  <TestSubstance_CASRN>
156-10-5

>  <TestSubstance_Description>
single chemical compound

>  <STRUCTURE_ChemicalName_IUPAC>
4-nitroso-N-phenylaniline

>  <STRUCTURE_SMILES>
N(C1C=CC(=CC=1)N=O)C2=CC=CC=C2

>  <STRUCTURE_Parent_SMILES>
N(C1C=CC(=CC=1)N=O)C2=CC=CC=C2

>  <STRUCTURE_InChI>
InChI=1/C12H10N2O/c15-14-12-8-6-11(7-9-12)13-10-4-2-1-3-5-10/h1-9,13H

>  <STRUCTURE_InChIKey>
OIJHFHYPXWSVPF-UHFFFAOYAW

>  <StudyType>
Carcinogenicity

>  <Endpoint>
TD50; Tumor Target Sites

>  <Species>
rat; mouse

>  <ActivityOutcome_CPDBAS_Mutagenicity>
active

>  <TD50_Rat_mg>
201

>  <TD50_Rat_mmol>
1.01

>  <ActivityScore_CPDBAS_Rat>
26

>  <TargetSites_Rat_Male>
liver

>  <TargetSites_Rat_Female>
no positive results

>  <ActivityOutcome_CPDBAS_Rat>
active

>  <TD50_Mouse_mg>
340

>  <TD50_Mouse_mmol>
1.72

>  <ActivityScore_CPDBAS_Mouse>
26

>  <TargetSites_Mouse_Male>
liver

>  <TargetSites_Mouse_Female>
no positive results

>  <ActivityOutcome_CPDBAS_Mouse>
active

>  <ActivityOutcome_CPDBAS_SingleCellCall>
active

>  <ActivityOutcome_CPDBAS_MultiCellCall>
active

>  <ActivityOutcome_CPDBAS_MultiCellCall_Details>
multispecies active

>  <NTP_TechnicalReport>
TR 190

>  <ChemicalPage_URL>
http://potency.berkeley.edu/chempages/p-NITROSODIPHENYLAMINE.html

$$$$



  9  8  0  0  0  0  0  0  0  0999 V2000
    0.0000   -1.9953    0.0000 O   0  0  0  0  0  0  0  0  0  0  0  0
    1.1520   -2.6588    0.0000 N   0  0  0  0  0  0  0  0  0  0  0  0
    2.3040   -1.9953    0.0000 N   0  0  0  0  0  0  0  0  0  0  0  0
    2.3040   -0.6635    0.0000 C   0  0  0  0  0  0  0  0  0  0  0  0
    1.1520    0.0000    0.0000 C   0  0  0  0  0  0  0  0  0  0  0  0
    0.0000   -0.6635    0.0000 C   0  0  0  0  0  0  0  0  0  0  0  0
    3.4560   -2.6588    0.0000 C   0  0  0  0  0  0  0  0  0  0  0  0
    4.6080   -1.9953    0.0000 C   0  0  0  0  0  0  0  0  0  0  0  0
    4.6080   -0.6635    0.0000 C   0  0  0  0  0  0  0  0  0  0  0  0
  1  2  2  0  0  0  0
  2  3  1  0  0  0  0
  3  4  1  0  0  0  0
  3  7  1  0  0  0  0
  4  5  1  0  0  0  0
  5  6  1  0  0  0  0
  7  8  1  0  0  0  0
  8  9  1  0  0  0  0
M  END
>  <DSSTox_RID>
21032

>  <DSSTox_CID>
1032

>  <DSSTox_Generic_SID>
21032

>  <DSSTox_FileID>
1077_CPDBAS_v5d

>  <STRUCTURE_Formula>
C6H14N2O

>  <STRUCTURE_MolecularWeight>
130.1894

>  <STRUCTURE_ChemicalType>
defined organic

>  <STRUCTURE_TestedForm_DefinedOrganic>
parent

>  <STRUCTURE_Shown>
tested chemical

>  <TestSubstance_ChemicalName>
N-Nitrosodipropylamine

>  <TestSubstance_CASRN>
621-64-7

>  <TestSubstance_Description>
single chemical compound

>  <STRUCTURE_ChemicalName_IUPAC>
N-nitroso-N-propylpropan-1-amine

>  <STRUCTURE_SMILES>
O=NN(CCC)CCC

>  <STRUCTURE_Parent_SMILES>
O=NN(CCC)CCC

>  <STRUCTURE_InChI>
InChI=1/C6H14N2O/c1-3-5-8(7-9)6-4-2/h3-6H2,1-2H3

>  <STRUCTURE_InChIKey>
YLKFDHTUAUWZPQ-UHFFFAOYAE

>  <StudyType>
Carcinogenicity

>  <Endpoint>
TD50; Tumor Target Sites

>  <Species>
rat; rhesus

>  <ActivityOutcome_CPDBAS_Mutagenicity>
active

>  <TD50_Rat_mg>
0.186

>  <TD50_Rat_mmol>
0.00143

>  <ActivityScore_CPDBAS_Rat>
55

>  <TargetSites_Rat_Female>
esophagus; liver; nasal cavity

>  <ActivityOutcome_CPDBAS_Rat>
active

>  <TD50_Rhesus_mg>
0.0121

>  <TargetSites_Rhesus>
liver

>  <TD50_Dog_Primates_Note>
positive test results for Rhesus only by intraperitoneal or intravenous injection

>  <ActivityOutcome_CPDBAS_Dog_Primates>
active

>  <ActivityOutcome_CPDBAS_SingleCellCall>
active

>  <ActivityOutcome_CPDBAS_MultiCellCall>
active

>  <ActivityOutcome_CPDBAS_MultiCellCall_Details>
multisite active; multispecies active

>  <ChemicalPage_URL>
http://potency.berkeley.edu/chempages/N-NITROSODIPROPYLAMINE.html

$$$$



  8  8  0  0  0  0  0  0  0  0999 V2000
    1.9962   -1.1540    0.0000 N   0  0  0  0  0  0  0  0  0  0  0  0
    2.6569    0.0000    0.0000 C   0  0  0  0  0  0  0  0  0  0  0  0
    3.9877    0.0000    0.0000 S   0  0  0  0  0  0  0  0  0  0  0  0
    4.6531   -1.1540    0.0000 C   0  0  0  0  0  0  0  0  0  0  0  0
    3.9877   -2.3033    0.0000 S   0  0  0  0  0  0  0  0  0  0  0  0
    2.6569   -2.3033    0.0000 C   0  0  0  0  0  0  0  0  0  0  0  0
    0.6654   -1.1540    0.0000 N   0  0  0  0  0  0  0  0  0  0  0  0
    0.0000    0.0000    0.0000 O   0  0  0  0  0  0  0  0  0  0  0  0
  1  2  1  0  0  0  0
  1  6  1  0  0  0  0
  1  7  1  0  0  0  0
  2  3  1  0  0  0  0
  3  4  1  0  0  0  0
  4  5  1  0  0  0  0
  5  6  1  0  0  0  0
  7  8  2  0  0  0  0
M  END
>  <DSSTox_RID>
21033

>  <DSSTox_CID>
1033

>  <DSSTox_Generic_SID>
21033

>  <DSSTox_FileID>
1078_CPDBAS_v5d

>  <STRUCTURE_Formula>
C3H6N2OS2

>  <STRUCTURE_MolecularWeight>
150.2132

>  <STRUCTURE_ChemicalType>
defined organic

>  <STRUCTURE_TestedForm_DefinedOrganic>
parent

>  <STRUCTURE_Shown>
tested chemical

>  <TestSubstance_ChemicalName>
N-Nitrosodithiazine

>  <TestSubstance_CASRN>
114282-83-6

>  <TestSubstance_Description>
single chemical compound

>  <STRUCTURE_ChemicalName_IUPAC>
5-nitroso-1,3,5-dithiazinane

>  <STRUCTURE_SMILES>
N1(CSCSC1)N=O

>  <STRUCTURE_Parent_SMILES>
N1(CSCSC1)N=O

>  <STRUCTURE_InChI>
InChI=1/C3H6N2OS2/c6-4-5-1-7-3-8-2-5/h1-3H2

>  <STRUCTURE_InChIKey>
HAGCCDDROWPBPR-UHFFFAOYAD

>  <StudyType>
Carcinogenicity

>  <Endpoint>
TD50; Tumor Target Sites

>  <Species>
rat

>  <ActivityScore_CPDBAS_Rat>
0

>  <TD50_Rat_Note>
no positive results

>  <TargetSites_Rat_Female>
no positive results

>  <ActivityOutcome_CPDBAS_Rat>
inactive

>  <ActivityOutcome_CPDBAS_SingleCellCall>
inactive

>  <ChemicalPage_URL>
http://potency.berkeley.edu/chempages/N-NITROSODITHIAZINE.html

$$$$



 15 15  0  0  0  0  0  0  0  0999 V2000
    0.0000   -2.3857    0.0000 O   0  0  0  0  0  0  0  0  0  0  0  0
    0.9466   -3.3169    0.0000 N   0  0  0  0  0  0  0  0  0  0  0  0
    2.2318   -2.9629    0.0000 N   0  0  0  0  0  0  0  0  0  0  0  0
    3.1630   -1.9624    0.0000 C   0  0  0  0  0  0  0  0  0  0  0  0
    3.1630   -0.6541    0.0000 C   0  0  0  0  0  0  0  0  0  0  0  0
    4.3020    0.0000    0.0000 C   0  0  0  0  0  0  0  0  0  0  0  0
    5.4333   -0.6541    0.0000 C   0  0  0  0  0  0  0  0  0  0  0  0
    6.5646    0.0000    0.0000 C   0  0  0  0  0  0  0  0  0  0  0  0
    7.6958   -0.6541    0.0000 C   0  0  0  0  0  0  0  0  0  0  0  0
    2.9706   -4.2404    0.0000 C   0  0  0  0  0  0  0  0  0  0  0  0
    4.2943   -3.9249    0.0000 C   0  0  0  0  0  0  0  0  0  0  0  0
    5.4256   -4.5790    0.0000 C   0  0  0  0  0  0  0  0  0  0  0  0
    6.5646   -3.9249    0.0000 C   0  0  0  0  0  0  0  0  0  0  0  0
    6.5646   -2.6166    0.0000 C   0  0  0  0  0  0  0  0  0  0  0  0
    7.6958   -1.9624    0.0000 C   0  0  0  0  0  0  0  0  0  0  0  0
  1  2  2  0  0  0  0
  2  3  1  0  0  0  0
  3  4  1  0  0  0  0
  3 10  1  0  0  0  0
  4  5  1  0  0  0  0
  5  6  1  0  0  0  0
  6  7  1  0  0  0  0
  7  8  1  0  0  0  0
  8  9  1  0  0  0  0
  9 15  1  0  0  0  0
 10 11  1  0  0  0  0
 11 12  1  0  0  0  0
 12 13  1  0  0  0  0
 13 14  1  0  0  0  0
 14 15  1  0  0  0  0
M  END
>  <DSSTox_RID>
21034

>  <DSSTox_CID>
1034

>  <DSSTox_Generic_SID>
21034

>  <DSSTox_FileID>
1079_CPDBAS_v5d

>  <STRUCTURE_Formula>
C12H24N2O

>  <STRUCTURE_MolecularWeight>
212.3344

>  <STRUCTURE_ChemicalType>
defined organic

>  <STRUCTURE_TestedForm_DefinedOrganic>
parent

>  <STRUCTURE_Shown>
tested chemical

>  <TestSubstance_ChemicalName>
Nitrosododecamethyleneimine

>  <TestSubstance_CASRN>
40580-89-0

>  <TestSubstance_Description>
single chemical compound

>  <STRUCTURE_ChemicalName_IUPAC>
1-nitrosoazacyclotridecane

>  <STRUCTURE_SMILES>
O=NN(CCCCCC1)CCCCCC1

>  <STRUCTURE_Parent_SMILES>
O=NN(CCCCCC1)CCCCCC1

>  <STRUCTURE_InChI>
InChI=1/C12H24N2O/c15-13-14-11-9-7-5-3-1-2-4-6-8-10-12-14/h1-12H2

>  <STRUCTURE_InChIKey>
HQHACWYQWDKBOZ-UHFFFAOYAC

>  <StudyType>
Carcinogenicity

>  <Endpoint>
TD50; Tumor Target Sites

>  <Species>
rat

>  <ActivityOutcome_CPDBAS_Mutagenicity>
active

>  <TD50_Rat_mg>
10.9

>  <TD50_Rat_mmol>
0.0513

>  <ActivityScore_CPDBAS_Rat>
39

>  <TD50_Rat_Note>
TD50 is harmonic mean of more than one positive test

>  <TargetSites_Rat_Male>
liver

>  <TargetSites_Rat_Female>
liver

>  <ActivityOutcome_CPDBAS_Rat>
active

>  <ActivityOutcome_CPDBAS_SingleCellCall>
active

>  <ActivityOutcome_CPDBAS_MultiCellCall>
active

>  <ActivityOutcome_CPDBAS_MultiCellCall_Details>
multisex active

>  <ChemicalPage_URL>
http://potency.berkeley.edu/chempages/NITROSODODECAMETHYLENEIMINE.html

$$$$



 14 14  0  0  0  0  0  0  0  0999 V2000
    1.9922   -4.6067    0.0000 C   0  0  0  0  0  0  0  0  0  0  0  0
    0.6641   -4.6067    0.0000 C   0  0  0  0  0  0  0  0  0  0  0  0
    0.0000   -3.4580    0.0000 C   0  0  0  0  0  0  0  0  0  0  0  0
    0.6641   -2.3033    0.0000 C   0  0  0  0  0  0  0  0  0  0  0  0
    1.9922   -2.3033    0.0000 C   0  0  0  0  0  0  0  0  0  0  0  0
    2.6563   -3.4580    0.0000 C   0  0  0  0  0  0  0  0  0  0  0  0
    3.9904   -3.4580    0.0000 C   0  0  3  0  0  0  0  0  0  0  0  0
    4.6545   -4.6067    0.0000 O   0  0  0  0  0  0  0  0  0  0  0  0
    4.6545   -2.3033    0.0000 C   0  0  3  0  0  0  0  0  0  0  0  0
    3.9904   -1.1547    0.0000 N   0  0  0  0  0  0  0  0  0  0  0  0
    4.6545    0.0000    0.0000 C   0  0  0  0  0  0  0  0  0  0  0  0
    2.6563   -1.1547    0.0000 N   0  0  0  0  0  0  0  0  0  0  0  0
    1.9922    0.0000    0.0000 O   0  0  0  0  0  0  0  0  0  0  0  0
    5.9827   -2.3033    0.0000 C   0  0  0  0  0  0  0  0  0  0  0  0
  1  2  2  0  0  0  0
  1  6  1  0  0  0  0
  2  3  1  0  0  0  0
  3  4  2  0  0  0  0
  4  5  1  0  0  0  0
  5  6  2  0  0  0  0
  6  7  1  0  0  0  0
  7  8  1  0  0  0  0
  7  9  1  0  0  0  0
  9 10  1  0  0  0  0
  9 14  1  0  0  0  0
 10 11  1  0  0  0  0
 10 12  1  0  0  0  0
 12 13  2  0  0  0  0
M  END
>  <DSSTox_RID>
21035

>  <DSSTox_CID>
1035

>  <DSSTox_Generic_SID>
21035

>  <DSSTox_FileID>
1080_CPDBAS_v5d

>  <STRUCTURE_Formula>
C10H14N2O2

>  <STRUCTURE_MolecularWeight>
194.2328

>  <STRUCTURE_ChemicalType>
defined organic

>  <STRUCTURE_TestedForm_DefinedOrganic>
parent

>  <STRUCTURE_Shown>
tested chemical

>  <TestSubstance_ChemicalName>
N-Nitrosoephedrine

>  <TestSubstance_CASRN>
17608-59-2

>  <TestSubstance_Description>
single chemical compound

>  <STRUCTURE_ChemicalName_IUPAC>
2-[methyl(nitroso)amino]-1-phenylpropan-1-ol

>  <STRUCTURE_SMILES>
C1=CC=CC=C1C(O)C(N(C)N=O)C

>  <STRUCTURE_Parent_SMILES>
C1=CC=CC=C1C(O)C(N(C)N=O)C

>  <STRUCTURE_InChI>
InChI=1/C10H14N2O2/c1-8(12(2)11-14)10(13)9-6-4-3-5-7-9/h3-8,10,13H,1-2H3

>  <STRUCTURE_InChIKey>
ZVTOLKAVCZXHFM-UHFFFAOYAM

>  <StudyType>
Carcinogenicity

>  <Endpoint>
TD50; Tumor Target Sites

>  <Species>
rat

>  <TD50_Rat_mg>
95.2

>  <TD50_Rat_mmol>
0.49

>  <ActivityScore_CPDBAS_Rat>
29

>  <TargetSites_Rat_Male>
liver; lung; stomach

>  <ActivityOutcome_CPDBAS_Rat>
active

>  <ActivityOutcome_CPDBAS_SingleCellCall>
active

>  <ActivityOutcome_CPDBAS_MultiCellCall>
active

>  <ActivityOutcome_CPDBAS_MultiCellCall_Details>
multisite active

>  <ChemicalPage_URL>
http://potency.berkeley.edu/chempages/N-NITROSOEPHEDRINE.html

$$$$



  6  5  0  0  0  0  0  0  0  0999 V2000
    2.3042    0.0000    0.0000 C   0  0  0  0  0  0  0  0  0  0  0  0
    2.3042   -1.3318    0.0000 N   0  0  0  0  0  0  0  0  0  0  0  0
    3.4563   -1.9954    0.0000 C   0  0  0  0  0  0  0  0  0  0  0  0
    4.6084   -1.3318    0.0000 C   0  0  0  0  0  0  0  0  0  0  0  0
    1.1521   -1.9954    0.0000 N   0  0  0  0  0  0  0  0  0  0  0  0
    0.0000   -1.3318    0.0000 O   0  0  0  0  0  0  0  0  0  0  0  0
  1  2  1  0  0  0  0
  2  3  1  0  0  0  0
  2  5  1  0  0  0  0
  3  4  1  0  0  0  0
  5  6  2  0  0  0  0
M  END
>  <DSSTox_RID>
21036

>  <DSSTox_CID>
1036

>  <DSSTox_Generic_SID>
21036

>  <DSSTox_FileID>
1081_CPDBAS_v5d

>  <STRUCTURE_Formula>
C3H8N2O

>  <STRUCTURE_MolecularWeight>
88.109

>  <STRUCTURE_ChemicalType>
defined organic

>  <STRUCTURE_TestedForm_DefinedOrganic>
parent

>  <STRUCTURE_Shown>
tested chemical

>  <TestSubstance_ChemicalName>
Nitrosoethylmethylamine

>  <TestSubstance_CASRN>
10595-95-6

>  <TestSubstance_Description>
single chemical compound

>  <STRUCTURE_ChemicalName_IUPAC>
N-methyl-N-nitrosoethanamine

>  <STRUCTURE_SMILES>
CN(CC)N=O

>  <STRUCTURE_Parent_SMILES>
CN(CC)N=O

>  <STRUCTURE_InChI>
InChI=1/C3H8N2O/c1-3-5(2)4-6/h3H2,1-2H3

>  <STRUCTURE_InChIKey>
RTDCJKARQCRONF-UHFFFAOYAX

>  <StudyType>
Carcinogenicity

>  <Endpoint>
TD50; Tumor Target Sites

>  <Species>
rat

>  <ActivityOutcome_CPDBAS_Mutagenicity>
active

>  <TD50_Rat_mg>
0.0503

>  <TD50_Rat_mmol>
0.000571

>  <ActivityScore_CPDBAS_Rat>
59

>  <TargetSites_Rat_Male>
liver; lung; nasal cavity

>  <TargetSites_Rat_Female>
no positive results

>  <ActivityOutcome_CPDBAS_Rat>
active

>  <ActivityOutcome_CPDBAS_SingleCellCall>
active

>  <ActivityOutcome_CPDBAS_MultiCellCall>
active

>  <ActivityOutcome_CPDBAS_MultiCellCall_Details>
multisite active

>  <ChemicalPage_URL>
http://potency.berkeley.edu/chempages/NITROSOETHYLMETHYLAMINE.html

$$$$



 10  9  0  0  0  0  0  0  0  0999 V2000
    3.9886   -3.4533    0.0000 O   0  0  0  0  0  0  0  0  0  0  0  0
    2.6591   -3.4533    0.0000 C   0  0  0  0  0  0  0  0  0  0  0  0
    1.9914   -4.6044    0.0000 N   0  0  0  0  0  0  0  0  0  0  0  0
    0.6619   -4.6044    0.0000 C   0  0  0  0  0  0  0  0  0  0  0  0
    0.0000   -5.7555    0.0000 C   0  0  0  0  0  0  0  0  0  0  0  0
    2.6591   -5.7555    0.0000 N   0  0  0  0  0  0  0  0  0  0  0  0
    3.9886   -5.7555    0.0000 O   0  0  0  0  0  0  0  0  0  0  0  0
    1.9914   -2.3022    0.0000 O   0  0  0  0  0  0  0  0  0  0  0  0
    2.6591   -1.1511    0.0000 C   0  0  0  0  0  0  0  0  0  0  0  0
    1.9914    0.0000    0.0000 C   0  0  0  0  0  0  0  0  0  0  0  0
  1  2  2  0  0  0  0
  2  3  1  0  0  0  0
  2  8  1  0  0  0  0
  3  4  1  0  0  0  0
  3  6  1  0  0  0  0
  4  5  1  0  0  0  0
  6  7  2  0  0  0  0
  8  9  1  0  0  0  0
  9 10  1  0  0  0  0
M  END
>  <DSSTox_RID>
21037

>  <DSSTox_CID>
1037

>  <DSSTox_Generic_SID>
21037

>  <DSSTox_FileID>
1082_CPDBAS_v5d

>  <STRUCTURE_Formula>
C5H10N2O3

>  <STRUCTURE_MolecularWeight>
146.1456

>  <STRUCTURE_ChemicalType>
defined organic

>  <STRUCTURE_TestedForm_DefinedOrganic>
parent

>  <STRUCTURE_Shown>
tested chemical

>  <TestSubstance_ChemicalName>
Nitrosoethylurethane

>  <TestSubstance_CASRN>
614-95-9

>  <TestSubstance_Description>
single chemical compound

>  <STRUCTURE_ChemicalName_IUPAC>
ethyl ethyl(nitroso)carbamate

>  <STRUCTURE_SMILES>
O=C(N(CC)N=O)OCC

>  <STRUCTURE_Parent_SMILES>
O=C(N(CC)N=O)OCC

>  <STRUCTURE_InChI>
InChI=1/C5H10N2O3/c1-3-7(6-9)5(8)10-4-2/h3-4H2,1-2H3

>  <STRUCTURE_InChIKey>
RAUQLNDTFONODT-UHFFFAOYAC

>  <StudyType>
Carcinogenicity

>  <Endpoint>
TD50; Tumor Target Sites

>  <Species>
rat

>  <ActivityOutcome_CPDBAS_Mutagenicity>
active

>  <TD50_Rat_mg>
0.0904

>  <TD50_Rat_mmol>
0.000619

>  <ActivityScore_CPDBAS_Rat>
59

>  <TD50_Rat_Note>
TD50 is harmonic mean of more than one positive test

>  <TargetSites_Rat_Female>
esophagus; oral cavity; small intestine; stomach

>  <ActivityOutcome_CPDBAS_Rat>
active

>  <ActivityOutcome_CPDBAS_SingleCellCall>
active

>  <ActivityOutcome_CPDBAS_MultiCellCall>
active

>  <ActivityOutcome_CPDBAS_MultiCellCall_Details>
multisite active

>  <ChemicalPage_URL>
http://potency.berkeley.edu/chempages/NITROSOETHYLURETHAN.html

$$$$



 12 12  0  0  0  0  0  0  0  0999 V2000
    1.1553   -1.9992    0.0000 O   0  0  0  0  0  0  0  0  0  0  0  0
    2.3023   -2.6628    0.0000 C   0  0  0  0  0  0  0  0  0  0  0  0
    2.3023   -3.9901    0.0000 O   0  0  0  0  0  0  0  0  0  0  0  0
    3.4576   -1.9992    0.0000 C   0  0  0  0  0  0  0  0  0  0  0  0
    3.4576   -0.6637    0.0000 C   0  0  0  0  0  0  0  0  0  0  0  0
    4.6046    0.0000    0.0000 C   0  0  0  0  0  0  0  0  0  0  0  0
    5.7599   -0.6637    0.0000 C   0  0  0  0  0  0  0  0  0  0  0  0
    5.7599   -1.9992    0.0000 N   0  0  0  0  0  0  0  0  0  0  0  0
    4.6046   -2.6628    0.0000 C   0  0  0  0  0  0  0  0  0  0  0  0
    6.9069   -2.6628    0.0000 N   0  0  0  0  0  0  0  0  0  0  0  0
    8.1933   -2.3187    0.0000 O   0  0  0  0  0  0  0  0  0  0  0  0
    0.0000   -2.6628    0.0000 C   0  0  0  0  0  0  0  0  0  0  0  0
  1  2  1  0  0  0  0
  1 12  1  0  0  0  0
  2  3  2  0  0  0  0
  2  4  1  0  0  0  0
  4  5  2  0  0  0  0
  4  9  1  0  0  0  0
  5  6  1  0  0  0  0
  6  7  1  0  0  0  0
  7  8  1  0  0  0  0
  8  9  1  0  0  0  0
  8 10  1  0  0  0  0
 10 11  2  0  0  0  0
M  END
>  <DSSTox_RID>
21038

>  <DSSTox_CID>
1038

>  <DSSTox_Generic_SID>
21038

>  <DSSTox_FileID>
1083_CPDBAS_v5d

>  <STRUCTURE_Formula>
C7H10N2O3

>  <STRUCTURE_MolecularWeight>
170.1659

>  <STRUCTURE_ChemicalType>
defined organic

>  <STRUCTURE_TestedForm_DefinedOrganic>
parent

>  <STRUCTURE_Shown>
tested chemical

>  <TestSubstance_ChemicalName>
N-Nitrosoguvacoline

>  <TestSubstance_CASRN>
55557-02-3

>  <TestSubstance_Description>
single chemical compound

>  <STRUCTURE_ChemicalName_IUPAC>
methyl 1-nitroso-1,2,5,6-tetrahydropyridine-3-carboxylate

>  <STRUCTURE_SMILES>
O=C(C1=CCCN(N=O)C1)OC

>  <STRUCTURE_Parent_SMILES>
O=C(C1=CCCN(N=O)C1)OC

>  <STRUCTURE_InChI>
InChI=1/C7H10N2O3/c1-12-7(10)6-3-2-4-9(5-6)8-11/h3H,2,4-5H2,1H3

>  <STRUCTURE_InChIKey>
NXEUEKXJAAVKCT-UHFFFAOYAD

>  <StudyType>
Carcinogenicity

>  <Endpoint>
TD50; Tumor Target Sites

>  <Species>
rat

>  <ActivityOutcome_CPDBAS_Mutagenicity>
active

>  <ActivityScore_CPDBAS_Rat>
0

>  <TD50_Rat_Note>
no positive results

>  <TargetSites_Rat_Male>
no positive results

>  <ActivityOutcome_CPDBAS_Rat>
inactive

>  <ActivityOutcome_CPDBAS_SingleCellCall>
inactive

>  <ChemicalPage_URL>
http://potency.berkeley.edu/chempages/N-NITROSOGUVACOLINE.html

$$$$



 10 10  0  0  0  0  0  0  0  0999 V2000
    0.0000   -1.9372    0.0000 O   0  0  0  0  0  0  0  0  0  0  0  0
    1.0397   -2.7471    0.0000 N   0  0  0  0  0  0  0  0  0  0  0  0
    2.2655   -2.2546    0.0000 N   0  0  0  0  0  0  0  0  0  0  0  0
    2.2655   -0.9358    0.0000 C   0  0  0  0  0  0  0  0  0  0  0  0
    3.2013    0.0000    0.0000 C   0  0  0  0  0  0  0  0  0  0  0  0
    4.5310    0.0000    0.0000 C   0  0  0  0  0  0  0  0  0  0  0  0
    5.4722   -0.9467    0.0000 C   0  0  0  0  0  0  0  0  0  0  0  0
    5.4722   -2.2819    0.0000 C   0  0  0  0  0  0  0  0  0  0  0  0
    4.5255   -3.2286    0.0000 C   0  0  0  0  0  0  0  0  0  0  0  0
    3.1848   -3.2286    0.0000 C   0  0  0  0  0  0  0  0  0  0  0  0
  1  2  2  0  0  0  0
  2  3  1  0  0  0  0
  3  4  1  0  0  0  0
  3 10  1  0  0  0  0
  4  5  1  0  0  0  0
  5  6  1  0  0  0  0
  6  7  1  0  0  0  0
  7  8  1  0  0  0  0
  8  9  1  0  0  0  0
  9 10  1  0  0  0  0
M  END
>  <DSSTox_RID>
21039

>  <DSSTox_CID>
1039

>  <DSSTox_Generic_SID>
21039

>  <DSSTox_FileID>
1084_CPDBAS_v5d

>  <STRUCTURE_Formula>
C7H14N2O

>  <STRUCTURE_MolecularWeight>
142.2004

>  <STRUCTURE_ChemicalType>
defined organic

>  <STRUCTURE_TestedForm_DefinedOrganic>
parent

>  <STRUCTURE_Shown>
tested chemical

>  <TestSubstance_ChemicalName>
Nitrosoheptamethyleneimine

>  <TestSubstance_CASRN>
20917-49-1

>  <TestSubstance_Description>
single chemical compound

>  <STRUCTURE_ChemicalName_IUPAC>
1-nitrosoazocane

>  <STRUCTURE_SMILES>
O=NN1CCCCCCC1

>  <STRUCTURE_Parent_SMILES>
O=NN1CCCCCCC1

>  <STRUCTURE_InChI>
InChI=1/C7H14N2O/c10-8-9-6-4-2-1-3-5-7-9/h1-7H2

>  <STRUCTURE_InChIKey>
RCFKQVLHWYOSFF-UHFFFAOYAK

>  <StudyType>
Carcinogenicity

>  <Endpoint>
TD50; Tumor Target Sites

>  <Species>
rat

>  <ActivityOutcome_CPDBAS_Mutagenicity>
active

>  <TD50_Rat_mg>
0.0378

>  <TD50_Rat_mmol>
0.000266

>  <ActivityScore_CPDBAS_Rat>
63

>  <TD50_Rat_Note>
TD50 is harmonic mean of more than one positive test

>  <TargetSites_Rat_Male>
esophagus; liver; oral cavity

>  <ActivityOutcome_CPDBAS_Rat>
active

>  <ActivityOutcome_CPDBAS_SingleCellCall>
active

>  <ActivityOutcome_CPDBAS_MultiCellCall>
active

>  <ActivityOutcome_CPDBAS_MultiCellCall_Details>
multisite active

>  <ChemicalPage_URL>
http://potency.berkeley.edu/chempages/NITROSOHEPTAMETHYLENEIMINE.html

$$$$



  9  9  0  0  0  0  0  0  0  0999 V2000
    0.0000   -2.2495    0.0000 O   0  0  0  0  0  0  0  0  0  0  0  0
    1.1505   -2.9150    0.0000 N   0  0  0  0  0  0  0  0  0  0  0  0
    2.3062   -2.2495    0.0000 N   0  0  0  0  0  0  0  0  0  0  0  0
    2.2237   -0.9390    0.0000 C   0  0  0  0  0  0  0  0  0  0  0  0
    3.1627    0.0000    0.0000 C   0  0  0  0  0  0  0  0  0  0  0  0
    4.4938   -0.2167    0.0000 C   0  0  0  0  0  0  0  0  0  0  0  0
    5.1594   -1.3672    0.0000 C   0  0  0  0  0  0  0  0  0  0  0  0
    4.6744   -2.6055    0.0000 C   0  0  0  0  0  0  0  0  0  0  0  0
    3.4000   -2.9976    0.0000 C   0  0  0  0  0  0  0  0  0  0  0  0
  1  2  2  0  0  0  0
  2  3  1  0  0  0  0
  3  4  1  0  0  0  0
  3  9  1  0  0  0  0
  4  5  1  0  0  0  0
  5  6  1  0  0  0  0
  6  7  1  0  0  0  0
  7  8  1  0  0  0  0
  8  9  1  0  0  0  0
M  END
>  <DSSTox_RID>
21040

>  <DSSTox_CID>
1040

>  <DSSTox_Generic_SID>
21040

>  <DSSTox_FileID>
1085_CPDBAS_v5d

>  <STRUCTURE_Formula>
C6H12N2O

>  <STRUCTURE_MolecularWeight>
128.1736

>  <STRUCTURE_ChemicalType>
defined organic

>  <STRUCTURE_TestedForm_DefinedOrganic>
parent

>  <STRUCTURE_Shown>
tested chemical

>  <TestSubstance_ChemicalName>
N-Nitrosohexamethyleneimine

>  <TestSubstance_CASRN>
932-83-2

>  <TestSubstance_Description>
single chemical compound

>  <STRUCTURE_ChemicalName_IUPAC>
1-nitrosoazepane

>  <STRUCTURE_SMILES>
O=NN1CCCCCC1

>  <STRUCTURE_Parent_SMILES>
O=NN1CCCCCC1

>  <STRUCTURE_InChI>
InChI=1/C6H12N2O/c9-7-8-5-3-1-2-4-6-8/h1-6H2

>  <STRUCTURE_InChIKey>
UZMVSVHUTOAPTD-UHFFFAOYAD

>  <StudyType>
Carcinogenicity

>  <Endpoint>
TD50; Tumor Target Sites

>  <Species>
mouse

>  <ActivityOutcome_CPDBAS_Mutagenicity>
active

>  <TD50_Mouse_mg>
0.528

>  <TD50_Mouse_mmol>
0.00412

>  <ActivityScore_CPDBAS_Mouse>
55

>  <TD50_Mouse_Note>
TD50 is harmonic mean of more than one positive test

>  <TargetSites_Mouse_Male>
esophagus; liver; oral cavity; stomach

>  <TargetSites_Mouse_Female>
esophagus; liver; lung; nasal cavity; oral cavity; stomach

>  <ActivityOutcome_CPDBAS_Mouse>
active

>  <ActivityOutcome_CPDBAS_SingleCellCall>
active

>  <ActivityOutcome_CPDBAS_MultiCellCall>
active

>  <ActivityOutcome_CPDBAS_MultiCellCall_Details>
multisite active; multisex active

>  <ChemicalPage_URL>
http://potency.berkeley.edu/chempages/N-NITROSOHEXAMETHYLENEIMINE.html

$$$$



  9  9  0  0  0  0  0  0  0  0999 V2000
    2.2893   -0.7820    0.0000 C   0  0  0  0  0  0  0  0  0  0  0  0
    3.5529   -0.3740    0.0000 N   0  0  0  0  0  0  0  0  0  0  0  0
    4.3348   -1.4506    0.0000 C   0  0  0  0  0  0  0  0  0  0  0  0
    3.5529   -2.5272    0.0000 C   0  0  0  0  0  0  0  0  0  0  0  0
    2.2893   -2.1136    0.0000 N   0  0  0  0  0  0  0  0  0  0  0  0
    1.2126   -2.8956    0.0000 N   0  0  0  0  0  0  0  0  0  0  0  0
    0.0000   -2.3572    0.0000 O   0  0  0  0  0  0  0  0  0  0  0  0
    5.6665   -1.4506    0.0000 O   0  0  0  0  0  0  0  0  0  0  0  0
    1.2126    0.0000    0.0000 O   0  0  0  0  0  0  0  0  0  0  0  0
  1  2  1  0  0  0  0
  1  5  1  0  0  0  0
  1  9  2  0  0  0  0
  2  3  1  0  0  0  0
  3  4  1  0  0  0  0
  3  8  2  0  0  0  0
  4  5  1  0  0  0  0
  5  6  1  0  0  0  0
  6  7  2  0  0  0  0
M  END
>  <DSSTox_RID>
21041

>  <DSSTox_CID>
1041

>  <DSSTox_Generic_SID>
21041

>  <DSSTox_FileID>
1086_CPDBAS_v5d

>  <STRUCTURE_Formula>
C3H3N3O3

>  <STRUCTURE_MolecularWeight>
129.075

>  <STRUCTURE_ChemicalType>
defined organic

>  <STRUCTURE_TestedForm_DefinedOrganic>
parent

>  <STRUCTURE_Shown>
tested chemical

>  <TestSubstance_ChemicalName>
1-Nitrosohydantoin

>  <TestSubstance_CASRN>
42579-28-2

>  <TestSubstance_Description>
single chemical compound

>  <STRUCTURE_ChemicalName_IUPAC>
1-nitrosoimidazolidine-2,4-dione

>  <STRUCTURE_SMILES>
C1(NC(CN1N=O)=O)=O

>  <STRUCTURE_Parent_SMILES>
C1(NC(CN1N=O)=O)=O

>  <STRUCTURE_InChI>
InChI=1/C3H3N3O3/c7-2-1-6(5-9)3(8)4-2/h1H2,(H,4,7,8)/f/h4H

>  <STRUCTURE_InChIKey>
UIDGJTUNLMQGLT-JLSKMEETCP

>  <StudyType>
Carcinogenicity

>  <Endpoint>
TD50; Tumor Target Sites

>  <Species>
rat

>  <ActivityOutcome_CPDBAS_Mutagenicity>
active

>  <TD50_Rat_mg>
43.8

>  <TD50_Rat_mmol>
0.339

>  <ActivityScore_CPDBAS_Rat>
31

>  <TD50_Rat_Note>
TD50 is harmonic mean of more than one positive test

>  <TargetSites_Rat_Male>
oral cavity

>  <TargetSites_Rat_Female>
all tumor bearing animals

>  <ActivityOutcome_CPDBAS_Rat>
active

>  <ActivityOutcome_CPDBAS_SingleCellCall>
active

>  <ActivityOutcome_CPDBAS_MultiCellCall>
active

>  <ActivityOutcome_CPDBAS_MultiCellCall_Details>
multisite active; multisex active

>  <ChemicalPage_URL>
http://potency.berkeley.edu/chempages/1-NITROSOHYDANTOIN.html

$$$$



 11 11  0  0  1  0  0  0  0  0999 V2000
    4.4508   -3.2793    0.0000 C   0  0  0  0  0  0  0  0  0  0  0  0
    5.1159   -4.4303    0.0000 O   0  0  0  0  0  0  0  0  0  0  0  0
    5.1159   -2.1282    0.0000 O   0  0  0  0  0  0  0  0  0  0  0  0
    3.1207   -3.2793    0.0000 C   0  0  2  0  0  0  0  0  0  0  0  0
    2.3380   -4.3587    0.0000 C   0  0  0  0  0  0  0  0  0  0  0  0
    1.0743   -3.9443    0.0000 C   0  0  2  0  0  0  0  0  0  0  0  0
    1.0743   -2.6142    0.0000 C   0  0  0  0  0  0  0  0  0  0  0  0
    2.3380   -2.2049    0.0000 N   0  0  0  0  0  0  0  0  0  0  0  0
    2.7523   -0.9413    0.0000 N   0  0  0  0  0  0  0  0  0  0  0  0
    1.8110    0.0000    0.0000 O   0  0  0  0  0  0  0  0  0  0  0  0
    0.0000   -4.7271    0.0000 O   0  0  0  0  0  0  0  0  0  0  0  0
  1  2  2  0  0  0  0
  1  3  1  0  0  0  0
  4  1  1  6  0  0  0
  4  5  1  0  0  0  0
  4  8  1  0  0  0  0
  5  6  1  0  0  0  0
  6  7  1  0  0  0  0
  6 11  1  1  0  0  0
  7  8  1  0  0  0  0
  8  9  1  0  0  0  0
  9 10  2  0  0  0  0
M  END
>  <DSSTox_RID>
21042

>  <DSSTox_CID>
1042

>  <DSSTox_Generic_SID>
21042

>  <DSSTox_FileID>
1087_CPDBAS_v5d

>  <STRUCTURE_Formula>
C5H8N2O4

>  <STRUCTURE_MolecularWeight>
160.1292

>  <STRUCTURE_ChemicalType>
defined organic

>  <STRUCTURE_TestedForm_DefinedOrganic>
parent

>  <STRUCTURE_Shown>
tested chemical

>  <TestSubstance_ChemicalName>
Nitrosohydroxyproline

>  <TestSubstance_CASRN>
30310-80-6

>  <TestSubstance_Description>
single chemical compound

>  <ChemicalNote>
stereochem

>  <STRUCTURE_ChemicalName_IUPAC>
(4R)-4-hydroxy-1-nitroso-L-proline

>  <STRUCTURE_SMILES>
O=[C@]([C@@H]1C[C@@H](O)CN1N=O)O

>  <STRUCTURE_Parent_SMILES>
O=[C@]([C@@H]1C[C@@H](O)CN1N=O)O

>  <STRUCTURE_InChI>
InChI=1/C5H8N2O4/c8-3-1-4(5(9)10)7(2-3)6-11/h3-4,8H,1-2H2,(H,9,10)/t3-,4+/m1/s1/f/h9H

>  <STRUCTURE_InChIKey>
ABVBOWJCKJGCJM-GPEDANMJDE

>  <StudyType>
Carcinogenicity

>  <Endpoint>
TD50; Tumor Target Sites

>  <Species>
rat

>  <ActivityScore_CPDBAS_Rat>
0

>  <TD50_Rat_Note>
no positive results

>  <TargetSites_Rat_Male>
no positive results

>  <TargetSites_Rat_Female>
no positive results

>  <ActivityOutcome_CPDBAS_Rat>
inactive

>  <ActivityOutcome_CPDBAS_SingleCellCall>
inactive

>  <ActivityOutcome_CPDBAS_MultiCellCall>
inactive

>  <ActivityOutcome_CPDBAS_MultiCellCall_Details>
multisex inactive

>  <Note_CPDBAS>
structure modified v5b

>  <ChemicalPage_URL>
http://potency.berkeley.edu/chempages/NITROSOHYDROXYPROLINE.html

$$$$



 11 10  0  0  0  0  0  0  0  0999 V2000
    3.9919    0.0000    0.0000 N   0  0  0  0  0  0  0  0  0  0  0  0
    3.3276   -1.1491    0.0000 N   0  0  0  0  0  0  0  0  0  0  0  0
    3.9919   -2.3042    0.0000 C   0  0  0  0  0  0  0  0  0  0  0  0
    5.3206   -2.3042    0.0000 C   0  0  0  0  0  0  0  0  0  0  0  0
    5.9849   -1.1491    0.0000 O   0  0  0  0  0  0  0  0  0  0  0  0
    5.9849   -3.4533    0.0000 O   0  0  0  0  0  0  0  0  0  0  0  0
    1.9930   -1.1491    0.0000 C   0  0  0  0  0  0  0  0  0  0  0  0
    1.3286   -2.3042    0.0000 C   0  0  0  0  0  0  0  0  0  0  0  0
    1.9930   -3.4533    0.0000 O   0  0  0  0  0  0  0  0  0  0  0  0
    0.0000   -2.3042    0.0000 O   0  0  0  0  0  0  0  0  0  0  0  0
    5.3206    0.0000    0.0000 O   0  0  0  0  0  0  0  0  0  0  0  0
  1  2  1  0  0  0  0
  1 11  2  0  0  0  0
  2  3  1  0  0  0  0
  2  7  1  0  0  0  0
  3  4  1  0  0  0  0
  4  5  1  0  0  0  0
  4  6  2  0  0  0  0
  7  8  1  0  0  0  0
  8  9  1  0  0  0  0
  8 10  2  0  0  0  0
M  END
>  <DSSTox_RID>
21043

>  <DSSTox_CID>
1043

>  <DSSTox_Generic_SID>
21043

>  <DSSTox_FileID>
1088_CPDBAS_v5d

>  <STRUCTURE_Formula>
C4H6N2O5

>  <STRUCTURE_MolecularWeight>
162.1018

>  <STRUCTURE_ChemicalType>
defined organic

>  <STRUCTURE_TestedForm_DefinedOrganic>
parent

>  <STRUCTURE_Shown>
tested chemical

>  <TestSubstance_ChemicalName>
Nitrosoiminodiacetic acid

>  <TestSubstance_CASRN>
25081-31-6

>  <TestSubstance_Description>
single chemical compound

>  <STRUCTURE_ChemicalName_IUPAC>
2,2'-(nitrosoimino)diacetic acid

>  <STRUCTURE_SMILES>
N(N(CC(O)=O)CC(O)=O)=O

>  <STRUCTURE_Parent_SMILES>
N(N(CC(O)=O)CC(O)=O)=O

>  <STRUCTURE_InChI>
InChI=1/C4H6N2O5/c7-3(8)1-6(5-11)2-4(9)10/h1-2H2,(H,7,8)(H,9,10)/f/h7,9H

>  <STRUCTURE_InChIKey>
XLYVHYXTFHZCNY-AUDIXQRPCR

>  <StudyType>
Carcinogenicity

>  <Endpoint>
TD50; Tumor Target Sites

>  <Species>
rat

>  <ActivityScore_CPDBAS_Rat>
0

>  <TD50_Rat_Note>
no positive results

>  <TargetSites_Rat_Male>
no positive results

>  <TargetSites_Rat_Female>
no positive results

>  <ActivityOutcome_CPDBAS_Rat>
inactive

>  <ActivityOutcome_CPDBAS_SingleCellCall>
inactive

>  <ActivityOutcome_CPDBAS_MultiCellCall>
inactive

>  <ActivityOutcome_CPDBAS_MultiCellCall_Details>
multisex inactive

>  <ChemicalPage_URL>
http://potency.berkeley.edu/chempages/NITROSOIMINODIACETIC%20ACID.html

$$$$



 10  9  0  0  0  0  0  0  0  0999 V2000
    5.8114   -2.0343    0.0000 C   0  0  0  0  0  0  0  0  0  0  0  0
    5.8114   -0.7151    0.0000 O   0  0  0  0  0  0  0  0  0  0  0  0
    6.9432   -2.7078    0.0000 O   0  0  0  0  0  0  0  0  0  0  0  0
    4.6519   -2.7078    0.0000 C   0  0  0  0  0  0  0  0  0  0  0  0
    3.4507   -2.0621    0.0000 C   0  0  0  0  0  0  0  0  0  0  0  0
    2.2912   -2.7078    0.0000 C   0  0  0  0  0  0  0  0  0  0  0  0
    1.1595   -2.0135    0.0000 N   0  0  0  0  0  0  0  0  0  0  0  0
    1.1803   -0.6943    0.0000 N   0  0  0  0  0  0  0  0  0  0  0  0
    0.0486    0.0000    0.0000 O   0  0  0  0  0  0  0  0  0  0  0  0
    0.0000   -2.6592    0.0000 C   0  0  0  0  0  0  0  0  0  0  0  0
  1  2  2  0  0  0  0
  1  3  1  0  0  0  0
  1  4  1  0  0  0  0
  4  5  1  0  0  0  0
  5  6  1  0  0  0  0
  6  7  1  0  0  0  0
  7  8  1  0  0  0  0
  7 10  1  0  0  0  0
  8  9  2  0  0  0  0
M  END
>  <DSSTox_RID>
40812

>  <DSSTox_CID>
20239

>  <DSSTox_Generic_SID>
40239

>  <DSSTox_FileID>
1089_CPDBAS_v5d

>  <STRUCTURE_Formula>
C5H10N2O3

>  <STRUCTURE_MolecularWeight>
146.1445

>  <STRUCTURE_ChemicalType>
defined organic

>  <STRUCTURE_TestedForm_DefinedOrganic>
parent

>  <STRUCTURE_Shown>
tested chemical

>  <TestSubstance_ChemicalName>
Nitrosomethyl-3-carboxypropylamine

>  <TestSubstance_CASRN>
61445-55-4

>  <TestSubstance_Description>
single chemical compound

>  <STRUCTURE_ChemicalName_IUPAC>
4-[methyl(nitroso)amino]butanoic acid

>  <STRUCTURE_SMILES>
O=C(CCCN(C)N=O)O

>  <STRUCTURE_Parent_SMILES>
O=C(CCCN(C)N=O)O

>  <STRUCTURE_InChI>
InChI=1/C5H10N2O3/c1-7(6-10)4-2-3-5(8)9/h2-4H2,1H3,(H,8,9)/f/h8H

>  <STRUCTURE_InChIKey>
SJLBIPLIGYWGJV-FZOZFQFYCJ

>  <StudyType>
Carcinogenicity

>  <Endpoint>
TD50; Tumor Target Sites

>  <Species>
rat

>  <ActivityOutcome_CPDBAS_Mutagenicity>
inactive

>  <TD50_Rat_mg>
0.982

>  <TD50_Rat_mmol>
0.00672

>  <ActivityScore_CPDBAS_Rat>
48

>  <TargetSites_Rat_Male>
urinary bladder

>  <ActivityOutcome_CPDBAS_Rat>
active

>  <ActivityOutcome_CPDBAS_SingleCellCall>
active

>  <Note_CPDBAS>
Rat added v5a; Mutagenicity_SAL_CPDB added v5a; chemical added v5a

>  <ChemicalPage_URL>
http://potency.berkeley.edu/chempages/NITROSOMETHYL-3-CARBOXYPROPYLAMINE.html

$$$$



  9  8  0  0  0  0  0  0  0  0999 V2000
    2.3046   -1.9992    0.0000 N   0  0  0  0  0  0  0  0  0  0  0  0
    3.4569   -2.6618    0.0000 C   0  0  0  0  0  0  0  0  0  0  0  0
    4.6092   -1.9992    0.0000 C   0  0  3  0  0  0  0  0  0  0  0  0
    4.6092   -0.6683    0.0000 C   0  0  0  0  0  0  0  0  0  0  0  0
    3.4569    0.0000    0.0000 O   0  0  0  0  0  0  0  0  0  0  0  0
    5.7615   -2.6618    0.0000 O   0  0  0  0  0  0  0  0  0  0  0  0
    2.3046   -0.6683    0.0000 C   0  0  0  0  0  0  0  0  0  0  0  0
    1.1523   -2.6618    0.0000 N   0  0  0  0  0  0  0  0  0  0  0  0
    0.0000   -1.9992    0.0000 O   0  0  0  0  0  0  0  0  0  0  0  0
  1  2  1  0  0  0  0
  1  7  1  0  0  0  0
  1  8  1  0  0  0  0
  2  3  1  0  0  0  0
  3  4  1  0  0  0  0
  3  6  1  0  0  0  0
  4  5  1  0  0  0  0
  8  9  2  0  0  0  0
M  END
>  <DSSTox_RID>
21044

>  <DSSTox_CID>
1044

>  <DSSTox_Generic_SID>
21044

>  <DSSTox_FileID>
1090_CPDBAS_v5d

>  <STRUCTURE_Formula>
C4H10N2O3

>  <STRUCTURE_MolecularWeight>
134.1346

>  <STRUCTURE_ChemicalType>
defined organic

>  <STRUCTURE_TestedForm_DefinedOrganic>
parent

>  <STRUCTURE_Shown>
tested chemical

>  <TestSubstance_ChemicalName>
N-Nitrosomethyl-2,3-dihydroxypropylamine

>  <TestSubstance_CASRN>
86451-37-8

>  <TestSubstance_Description>
single chemical compound

>  <STRUCTURE_ChemicalName_IUPAC>
3-[methyl(nitroso)amino]propane-1,2-diol

>  <STRUCTURE_SMILES>
N(CC(CO)O)(C)N=O

>  <STRUCTURE_Parent_SMILES>
N(CC(CO)O)(C)N=O

>  <STRUCTURE_InChI>
InChI=1/C4H10N2O3/c1-6(5-9)2-4(8)3-7/h4,7-8H,2-3H2,1H3

>  <STRUCTURE_InChIKey>
YHOZMWRNWDWYKJ-UHFFFAOYAZ

>  <StudyType>
Carcinogenicity

>  <Endpoint>
TD50; Tumor Target Sites

>  <Species>
rat; hamster

>  <TD50_Rat_mg>
0.646

>  <TD50_Rat_mmol>
0.00482

>  <ActivityScore_CPDBAS_Rat>
50

>  <TargetSites_Rat_Female>
esophagus; liver; lung; nasal cavity

>  <ActivityOutcome_CPDBAS_Rat>
active

>  <TD50_Hamster_mg>
0.94

>  <TD50_Hamster_mmol>
0.00701

>  <ActivityScore_CPDBAS_Hamster>
78

>  <TargetSites_Hamster_Female>
nasal cavity

>  <ActivityOutcome_CPDBAS_Hamster>
active

>  <ActivityOutcome_CPDBAS_SingleCellCall>
active

>  <ActivityOutcome_CPDBAS_MultiCellCall>
active

>  <ActivityOutcome_CPDBAS_MultiCellCall_Details>
multisite active; multispecies active

>  <ChemicalPage_URL>
http://potency.berkeley.edu/chempages/N-NITROSOMETHYL-2,3-DIHYDROXYPROPYLAMINE.html

$$$$



  7  6  0  0  0  0  0  0  0  0999 V2000
    2.3037    0.0000    0.0000 C   0  0  0  0  0  0  0  0  0  0  0  0
    2.3037   -1.3315    0.0000 N   0  0  0  0  0  0  0  0  0  0  0  0
    3.4555   -1.9950    0.0000 C   0  0  0  0  0  0  0  0  0  0  0  0
    4.6073   -1.3315    0.0000 C   0  0  0  0  0  0  0  0  0  0  0  0
    4.6073    0.0000    0.0000 O   0  0  0  0  0  0  0  0  0  0  0  0
    1.1518   -1.9950    0.0000 N   0  0  0  0  0  0  0  0  0  0  0  0
    0.0000   -1.3315    0.0000 O   0  0  0  0  0  0  0  0  0  0  0  0
  1  2  1  0  0  0  0
  2  3  1  0  0  0  0
  2  6  1  0  0  0  0
  3  4  1  0  0  0  0
  4  5  1  0  0  0  0
  6  7  2  0  0  0  0
M  END
>  <DSSTox_RID>
21045

>  <DSSTox_CID>
1045

>  <DSSTox_Generic_SID>
21045

>  <DSSTox_FileID>
1091_CPDBAS_v5d

>  <STRUCTURE_Formula>
C3H8N2O2

>  <STRUCTURE_MolecularWeight>
104.1084

>  <STRUCTURE_ChemicalType>
defined organic

>  <STRUCTURE_TestedForm_DefinedOrganic>
parent

>  <STRUCTURE_Shown>
tested chemical

>  <TestSubstance_ChemicalName>
N-Nitrosomethyl-(2-hydroxyethyl) amine

>  <TestSubstance_CASRN>
26921-68-6

>  <TestSubstance_Description>
single chemical compound

>  <STRUCTURE_ChemicalName_IUPAC>
2-[methyl(nitroso)amino]ethanol

>  <STRUCTURE_SMILES>
CN(CCO)N=O

>  <STRUCTURE_Parent_SMILES>
CN(CCO)N=O

>  <STRUCTURE_InChI>
InChI=1/C3H8N2O2/c1-5(4-7)2-3-6/h6H,2-3H2,1H3

>  <STRUCTURE_InChIKey>
GFOKXZBYAVRDMO-UHFFFAOYAO

>  <StudyType>
Carcinogenicity

>  <Endpoint>
TD50; Tumor Target Sites

>  <Species>
rat

>  <TD50_Rat_mg>
1.29

>  <TD50_Rat_mmol>
0.0124

>  <ActivityScore_CPDBAS_Rat>
45

>  <TargetSites_Rat_Male>
liver; nasal cavity

>  <ActivityOutcome_CPDBAS_Rat>
active

>  <ActivityOutcome_CPDBAS_SingleCellCall>
active

>  <ActivityOutcome_CPDBAS_MultiCellCall>
active

>  <ActivityOutcome_CPDBAS_MultiCellCall_Details>
multisite active

>  <ChemicalPage_URL>
http://potency.berkeley.edu/chempages/N-NITROSOMETHYL-(2-HYDROXYETHYL)AMINE.html

$$$$



  8  7  0  0  0  0  0  0  0  0999 V2000
    0.6642   -1.1549    0.0000 N   0  0  0  0  0  0  0  0  0  0  0  0
    1.9926   -1.1549    0.0000 N   0  0  0  0  0  0  0  0  0  0  0  0
    2.6569   -2.3038    0.0000 C   0  0  0  0  0  0  0  0  0  0  0  0
    3.9913   -2.3038    0.0000 C   0  0  0  0  0  0  0  0  0  0  0  0
    4.6555   -1.1549    0.0000 C   0  0  0  0  0  0  0  0  0  0  0  0
    5.9839   -1.1549    0.0000 O   0  0  0  0  0  0  0  0  0  0  0  0
    2.6569    0.0000    0.0000 C   0  0  0  0  0  0  0  0  0  0  0  0
    0.0000    0.0000    0.0000 O   0  0  0  0  0  0  0  0  0  0  0  0
  1  2  1  0  0  0  0
  1  8  2  0  0  0  0
  2  3  1  0  0  0  0
  2  7  1  0  0  0  0
  3  4  1  0  0  0  0
  4  5  1  0  0  0  0
  5  6  1  0  0  0  0
M  END
>  <DSSTox_RID>
21046

>  <DSSTox_CID>
1046

>  <DSSTox_Generic_SID>
21046

>  <DSSTox_FileID>
1092_CPDBAS_v5d

>  <STRUCTURE_Formula>
C4H10N2O2

>  <STRUCTURE_MolecularWeight>
118.1352

>  <STRUCTURE_ChemicalType>
defined organic

>  <STRUCTURE_TestedForm_DefinedOrganic>
parent

>  <STRUCTURE_Shown>
tested chemical

>  <TestSubstance_ChemicalName>
N-Nitrosomethyl-(3-hydroxypropyl) amine

>  <TestSubstance_CASRN>
70415-59-7

>  <TestSubstance_Description>
single chemical compound

>  <STRUCTURE_ChemicalName_IUPAC>
3-[methyl(nitroso)amino]propan-1-ol

>  <STRUCTURE_SMILES>
N(N(CCCO)C)=O

>  <STRUCTURE_Parent_SMILES>
N(N(CCCO)C)=O

>  <STRUCTURE_InChI>
InChI=1/C4H10N2O2/c1-6(5-8)3-2-4-7/h7H,2-4H2,1H3

>  <STRUCTURE_InChIKey>
DNPICXVYNIZRFB-UHFFFAOYAF

>  <StudyType>
Carcinogenicity

>  <Endpoint>
TD50; Tumor Target Sites

>  <Species>
rat

>  <TD50_Rat_mg>
1.66

>  <TD50_Rat_mmol>
0.0141

>  <ActivityScore_CPDBAS_Rat>
45

>  <TD50_Rat_Note>
TD50 is harmonic mean of more than one positive test

>  <TargetSites_Rat_Male>
liver; lung

>  <TargetSites_Rat_Female>
liver; lung

>  <ActivityOutcome_CPDBAS_Rat>
active

>  <ActivityOutcome_CPDBAS_SingleCellCall>
active

>  <ActivityOutcome_CPDBAS_MultiCellCall>
active

>  <ActivityOutcome_CPDBAS_MultiCellCall_Details>
multisite active; multisex active

>  <ChemicalPage_URL>
http://potency.berkeley.edu/chempages/N-NITROSOMETHYL-(3-HYDROXYPROPYL)AMINE.html

$$$$



  8  7  0  0  0  0  0  0  0  0999 V2000
    1.1526   -1.9939    0.0000 N   0  0  0  0  0  0  0  0  0  0  0  0
    2.3051   -1.3312    0.0000 N   0  0  0  0  0  0  0  0  0  0  0  0
    3.4577   -1.9939    0.0000 C   0  0  0  0  0  0  0  0  0  0  0  0
    4.6103   -1.3312    0.0000 C   0  0  3  0  0  0  0  0  0  0  0  0
    4.6103    0.0000    0.0000 C   0  0  0  0  0  0  0  0  0  0  0  0
    5.7628   -1.9939    0.0000 O   0  0  0  0  0  0  0  0  0  0  0  0
    2.3051    0.0000    0.0000 C   0  0  0  0  0  0  0  0  0  0  0  0
    0.0000   -1.3312    0.0000 O   0  0  0  0  0  0  0  0  0  0  0  0
  1  2  1  0  0  0  0
  1  8  2  0  0  0  0
  2  3  1  0  0  0  0
  2  7  1  0  0  0  0
  3  4  1  0  0  0  0
  4  5  1  0  0  0  0
  4  6  1  0  0  0  0
M  END
>  <DSSTox_RID>
21047

>  <DSSTox_CID>
1047

>  <DSSTox_Generic_SID>
21047

>  <DSSTox_FileID>
1093_CPDBAS_v5d

>  <STRUCTURE_Formula>
C4H10N2O2

>  <STRUCTURE_MolecularWeight>
118.1344

>  <STRUCTURE_ChemicalType>
defined organic

>  <STRUCTURE_TestedForm_DefinedOrganic>
parent

>  <STRUCTURE_Shown>
tested chemical

>  <TestSubstance_ChemicalName>
N-Nitrosomethyl-2-hydroxypropylamine

>  <TestSubstance_CASRN>
75411-83-5

>  <TestSubstance_Description>
single chemical compound

>  <STRUCTURE_ChemicalName_IUPAC>
1-[methyl(nitroso)amino]propan-2-ol

>  <STRUCTURE_SMILES>
CC(O)CN(C)N=O

>  <STRUCTURE_Parent_SMILES>
CC(O)CN(C)N=O

>  <STRUCTURE_InChI>
InChI=1/C4H10N2O2/c1-4(7)3-6(2)5-8/h4,7H,3H2,1-2H3

>  <STRUCTURE_InChIKey>
SJPQUECDNWANFT-UHFFFAOYAK

>  <StudyType>
Carcinogenicity

>  <Endpoint>
TD50; Tumor Target Sites

>  <Species>
rat

>  <TD50_Rat_mg>
0.0463

>  <TD50_Rat_mmol>
0.000392

>  <ActivityScore_CPDBAS_Rat>
61

>  <TD50_Rat_Note>
TD50 is harmonic mean of more than one positive test

>  <TargetSites_Rat_Male>
esophagus; nasal cavity

>  <TargetSites_Rat_Female>
esophagus; nasal cavity

>  <ActivityOutcome_CPDBAS_Rat>
active

>  <ActivityOutcome_CPDBAS_SingleCellCall>
active

>  <ActivityOutcome_CPDBAS_MultiCellCall>
active

>  <ActivityOutcome_CPDBAS_MultiCellCall_Details>
multisite active; multisex active

>  <Note_CPDBAS>
structure corrected v5a; TD50_Rat_mmol modified v5a

>  <ChemicalPage_URL>
http://potency.berkeley.edu/chempages/N-NITROSOMETHYL-2-HYDROXYPROPYLAMINE.html

$$$$



  8  7  0  0  0  0  0  0  0  0999 V2000
    2.3051    0.0000    0.0000 C   0  0  0  0  0  0  0  0  0  0  0  0
    2.3051   -1.3312    0.0000 N   0  0  0  0  0  0  0  0  0  0  0  0
    3.4577   -1.9939    0.0000 C   0  0  0  0  0  0  0  0  0  0  0  0
    4.6103   -1.3312    0.0000 C   0  0  0  0  0  0  0  0  0  0  0  0
    5.7628   -1.9939    0.0000 C   0  0  0  0  0  0  0  0  0  0  0  0
    4.6103    0.0000    0.0000 O   0  0  0  0  0  0  0  0  0  0  0  0
    1.1526   -1.9939    0.0000 N   0  0  0  0  0  0  0  0  0  0  0  0
    0.0000   -1.3312    0.0000 O   0  0  0  0  0  0  0  0  0  0  0  0
  1  2  1  0  0  0  0
  2  3  1  0  0  0  0
  2  7  1  0  0  0  0
  3  4  1  0  0  0  0
  4  5  1  0  0  0  0
  4  6  2  0  0  0  0
  7  8  2  0  0  0  0
M  END
>  <DSSTox_RID>
21048

>  <DSSTox_CID>
1048

>  <DSSTox_Generic_SID>
21048

>  <DSSTox_FileID>
1094_CPDBAS_v5d

>  <STRUCTURE_Formula>
C4H8N2O2

>  <STRUCTURE_MolecularWeight>
116.1194

>  <STRUCTURE_ChemicalType>
defined organic

>  <STRUCTURE_TestedForm_DefinedOrganic>
parent

>  <STRUCTURE_Shown>
tested chemical

>  <TestSubstance_ChemicalName>
N-Nitrosomethyl(2-oxopropyl)amine

>  <TestSubstance_CASRN>
55984-51-5

>  <TestSubstance_Description>
single chemical compound

>  <STRUCTURE_ChemicalName_IUPAC>
1-[methyl(nitroso)amino]propan-2-one

>  <STRUCTURE_SMILES>
CN(CC(C)=O)N=O

>  <STRUCTURE_Parent_SMILES>
CN(CC(C)=O)N=O

>  <STRUCTURE_InChI>
InChI=1/C4H8N2O2/c1-4(7)3-6(2)5-8/h3H2,1-2H3

>  <STRUCTURE_InChIKey>
CWULQTRBZMJZEG-UHFFFAOYAW

>  <StudyType>
Carcinogenicity

>  <Endpoint>
TD50; Tumor Target Sites

>  <Species>
rat

>  <TD50_Rat_mg>
0.0172

>  <TD50_Rat_mmol>
0.000148

>  <ActivityScore_CPDBAS_Rat>
65

>  <TD50_Rat_Note>
TD50 is harmonic mean of more than one positive test

>  <TargetSites_Rat_Male>
esophagus; liver; nasal cavity; oral cavity

>  <TargetSites_Rat_Female>
esophagus; liver; nasal cavity; oral cavity

>  <ActivityOutcome_CPDBAS_Rat>
active

>  <ActivityOutcome_CPDBAS_SingleCellCall>
active

>  <ActivityOutcome_CPDBAS_MultiCellCall>
active

>  <ActivityOutcome_CPDBAS_MultiCellCall_Details>
multisite active; multisex active

>  <ChemicalPage_URL>
http://potency.berkeley.edu/chempages/N-NITROSOMETHYL(2-OXOPROPYL)AMINE.html

$$$$



 17 17  0  0  0  0  0  0  0  0999 V2000
    0.0000    0.0000    0.0000 O   0  0  0  0  0  0  0  0  0  0  0  0
    9.3162   -4.6016    0.0000 C   0  0  0  0  0  0  0  0  0  0  0  0
    7.9821   -4.6016    0.0000 C   0  0  0  0  0  0  0  0  0  0  0  0
    9.9719   -3.4483    0.0000 C   0  0  0  0  0  0  0  0  0  0  0  0
    7.3150   -3.4483    0.0000 C   0  0  0  0  0  0  0  0  0  0  0  0
    9.3162   -2.2951    0.0000 C   0  0  0  0  0  0  0  0  0  0  0  0
    7.9821   -2.2951    0.0000 C   0  0  0  0  0  0  0  0  0  0  0  0
   11.3060   -3.4483    0.0000 C   0  0  0  0  0  0  0  0  0  0  0  0
    5.9809   -3.4483    0.0000 S   0  0  0  0  0  0  0  0  0  0  0  0
    5.9809   -4.7825    0.0000 O   0  0  0  0  0  0  0  0  0  0  0  0
    5.9809   -2.1255    0.0000 O   0  0  0  0  0  0  0  0  0  0  0  0
    4.6581   -3.4483    0.0000 O   0  0  0  0  0  0  0  0  0  0  0  0
    3.9910   -2.2951    0.0000 C   0  0  0  0  0  0  0  0  0  0  0  0
    2.6569   -2.2951    0.0000 C   0  0  0  0  0  0  0  0  0  0  0  0
    1.9899   -1.1532    0.0000 N   0  0  0  0  0  0  0  0  0  0  0  0
    0.6671   -1.1532    0.0000 N   0  0  0  0  0  0  0  0  0  0  0  0
    2.6569    0.0000    0.0000 C   0  0  0  0  0  0  0  0  0  0  0  0
  1 16  2  0  0  0  0
  2  3  1  0  0  0  0
  2  4  2  0  0  0  0
  3  5  2  0  0  0  0
  4  6  1  0  0  0  0
  4  8  1  0  0  0  0
  5  7  1  0  0  0  0
  5  9  1  0  0  0  0
  6  7  2  0  0  0  0
  9 10  2  0  0  0  0
  9 11  2  0  0  0  0
  9 12  1  0  0  0  0
 12 13  1  0  0  0  0
 13 14  1  0  0  0  0
 14 15  1  0  0  0  0
 15 16  1  0  0  0  0
 15 17  1  0  0  0  0
M  END
>  <DSSTox_RID>
21049

>  <DSSTox_CID>
1049

>  <DSSTox_Generic_SID>
21049

>  <DSSTox_FileID>
1095_CPDBAS_v5d

>  <STRUCTURE_Formula>
C10H14N2O4S

>  <STRUCTURE_MolecularWeight>
258.2916

>  <STRUCTURE_ChemicalType>
defined organic

>  <STRUCTURE_TestedForm_DefinedOrganic>
parent

>  <STRUCTURE_Shown>
tested chemical

>  <TestSubstance_ChemicalName>
N-Nitrosomethyl-(2-tosyloxyethyl) amine

>  <TestSubstance_CASRN>
NOCAS

>  <TestSubstance_Description>
single chemical compound

>  <STRUCTURE_ChemicalName_IUPAC>
2-[methyl(nitroso)amino]ethyl 4-methylbenzenesulfonate

>  <STRUCTURE_SMILES>
O=NN(C)CCOS(C1=CC=C(C)C=C1)(=O)=O

>  <STRUCTURE_Parent_SMILES>
O=NN(C)CCOS(C1=CC=C(C)C=C1)(=O)=O

>  <STRUCTURE_InChI>
InChI=1/C10H14N2O4S/c1-9-3-5-10(6-4-9)17(14,15)16-8-7-12(2)11-13/h3-6H,7-8H2,1-2H3

>  <STRUCTURE_InChIKey>
SUJOMVHQTCCFTH-UHFFFAOYAG

>  <StudyType>
Carcinogenicity

>  <Endpoint>
TD50; Tumor Target Sites

>  <Species>
rat

>  <TD50_Rat_mg>
4.8

>  <TD50_Rat_mmol>
0.0186

>  <ActivityScore_CPDBAS_Rat>
44

>  <TD50_Rat_Note>
TD50 is harmonic mean of more than one positive test

>  <TargetSites_Rat_Male>
liver; vascular system

>  <TargetSites_Rat_Female>
liver; vascular system

>  <ActivityOutcome_CPDBAS_Rat>
active

>  <ActivityOutcome_CPDBAS_SingleCellCall>
active

>  <ActivityOutcome_CPDBAS_MultiCellCall>
active

>  <ActivityOutcome_CPDBAS_MultiCellCall_Details>
multisite active; multisex active

>  <ChemicalPage_URL>
http://potency.berkeley.edu/chempages/N-NITROSOMETHYL-(2-TOSYLOXYETHYL)AMINE.html

$$$$



 10 10  0  0  0  0  0  0  0  0999 V2000
    5.3206    0.0000    0.0000 C   0  0  0  0  0  0  0  0  0  0  0  0
    5.9849   -1.1551    0.0000 C   0  0  0  0  0  0  0  0  0  0  0  0
    5.3206   -2.3042    0.0000 C   0  0  0  0  0  0  0  0  0  0  0  0
    3.9919   -2.3042    0.0000 C   0  0  0  0  0  0  0  0  0  0  0  0
    3.3276   -1.1551    0.0000 C   0  0  0  0  0  0  0  0  0  0  0  0
    3.9919    0.0000    0.0000 N   0  0  0  0  0  0  0  0  0  0  0  0
    1.9930   -1.1551    0.0000 N   0  0  0  0  0  0  0  0  0  0  0  0
    1.3286   -2.3042    0.0000 N   0  0  0  0  0  0  0  0  0  0  0  0
    0.0000   -2.3042    0.0000 O   0  0  0  0  0  0  0  0  0  0  0  0
    1.3286    0.0000    0.0000 C   0  0  0  0  0  0  0  0  0  0  0  0
  1  2  2  0  0  0  0
  1  6  1  0  0  0  0
  2  3  1  0  0  0  0
  3  4  2  0  0  0  0
  4  5  1  0  0  0  0
  5  6  2  0  0  0  0
  5  7  1  0  0  0  0
  7  8  1  0  0  0  0
  7 10  1  0  0  0  0
  8  9  2  0  0  0  0
M  END
>  <DSSTox_RID>
21050

>  <DSSTox_CID>
1050

>  <DSSTox_Generic_SID>
21050

>  <DSSTox_FileID>
1096_CPDBAS_v5d

>  <STRUCTURE_Formula>
C6H7N3O

>  <STRUCTURE_MolecularWeight>
137.1408

>  <STRUCTURE_ChemicalType>
defined organic

>  <STRUCTURE_TestedForm_DefinedOrganic>
parent

>  <STRUCTURE_Shown>
tested chemical

>  <TestSubstance_ChemicalName>
2-Nitrosomethylaminopyridine

>  <TestSubstance_CASRN>
16219-98-0

>  <TestSubstance_Description>
single chemical compound

>  <STRUCTURE_ChemicalName_IUPAC>
N-methyl-N-nitrosopyridin-2-amine

>  <STRUCTURE_SMILES>
C1=CC=CC(=N1)N(N=O)C

>  <STRUCTURE_Parent_SMILES>
C1=CC=CC(=N1)N(N=O)C

>  <STRUCTURE_InChI>
InChI=1/C6H7N3O/c1-9(8-10)6-4-2-3-5-7-6/h2-5H,1H3

>  <STRUCTURE_InChIKey>
WJDNMDMNPIKDCP-UHFFFAOYAJ

>  <StudyType>
Carcinogenicity

>  <Endpoint>
TD50; Tumor Target Sites

>  <Species>
rat

>  <ActivityOutcome_CPDBAS_Mutagenicity>
active

>  <TD50_Rat_mg>
0.214

>  <TD50_Rat_mmol>
0.00156

>  <ActivityScore_CPDBAS_Rat>
55

>  <TargetSites_Rat_Female>
esophagus

>  <ActivityOutcome_CPDBAS_Rat>
active

>  <ActivityOutcome_CPDBAS_SingleCellCall>
active

>  <ChemicalPage_URL>
http://potency.berkeley.edu/chempages/2-NITROSOMETHYLAMINOPYRIDINE.html

$$$$



 10 10  0  0  0  0  0  0  0  0999 V2000
    5.9849   -1.1551    0.0000 C   0  0  0  0  0  0  0  0  0  0  0  0
    5.3206   -2.3042    0.0000 C   0  0  0  0  0  0  0  0  0  0  0  0
    3.9919   -2.3042    0.0000 C   0  0  0  0  0  0  0  0  0  0  0  0
    3.3276   -1.1551    0.0000 C   0  0  0  0  0  0  0  0  0  0  0  0
    3.9919    0.0000    0.0000 C   0  0  0  0  0  0  0  0  0  0  0  0
    5.3206    0.0000    0.0000 N   0  0  0  0  0  0  0  0  0  0  0  0
    1.9930   -1.1551    0.0000 N   0  0  0  0  0  0  0  0  0  0  0  0
    1.3286   -2.3042    0.0000 N   0  0  0  0  0  0  0  0  0  0  0  0
    0.0000   -2.3042    0.0000 O   0  0  0  0  0  0  0  0  0  0  0  0
    1.3286    0.0000    0.0000 C   0  0  0  0  0  0  0  0  0  0  0  0
  1  2  2  0  0  0  0
  1  6  1  0  0  0  0
  2  3  1  0  0  0  0
  3  4  2  0  0  0  0
  4  5  1  0  0  0  0
  4  7  1  0  0  0  0
  5  6  2  0  0  0  0
  7  8  1  0  0  0  0
  7 10  1  0  0  0  0
  8  9  2  0  0  0  0
M  END
>  <DSSTox_RID>
21051

>  <DSSTox_CID>
1051

>  <DSSTox_Generic_SID>
21051

>  <DSSTox_FileID>
1097_CPDBAS_v5d

>  <STRUCTURE_Formula>
C6H7N3O

>  <STRUCTURE_MolecularWeight>
137.1408

>  <STRUCTURE_ChemicalType>
defined organic

>  <STRUCTURE_TestedForm_DefinedOrganic>
parent

>  <STRUCTURE_Shown>
tested chemical

>  <TestSubstance_ChemicalName>
3-Nitrosomethylaminopyridine

>  <TestSubstance_CASRN>
69658-91-9

>  <TestSubstance_Description>
single chemical compound

>  <STRUCTURE_ChemicalName_IUPAC>
N-methyl-N-nitrosopyridin-3-amine

>  <STRUCTURE_SMILES>
C1=CC=C(C=N1)N(N=O)C

>  <STRUCTURE_Parent_SMILES>
C1=CC=C(C=N1)N(N=O)C

>  <STRUCTURE_InChI>
InChI=1/C6H7N3O/c1-9(8-10)6-3-2-4-7-5-6/h2-5H,1H3

>  <STRUCTURE_InChIKey>
GOPFSGIKKZFUJK-UHFFFAOYAG

>  <StudyType>
Carcinogenicity

>  <Endpoint>
TD50; Tumor Target Sites

>  <Species>
rat

>  <ActivityOutcome_CPDBAS_Mutagenicity>
inactive

>  <ActivityScore_CPDBAS_Rat>
0

>  <TD50_Rat_Note>
no positive results

>  <TargetSites_Rat_Female>
no positive results

>  <ActivityOutcome_CPDBAS_Rat>
inactive

>  <ActivityOutcome_CPDBAS_SingleCellCall>
inactive

>  <ChemicalPage_URL>
http://potency.berkeley.edu/chempages/3-NITROSOMETHYLAMINOPYRIDINE.html

$$$$



 10 10  0  0  0  0  0  0  0  0999 V2000
    5.3206   -2.3042    0.0000 C   0  0  0  0  0  0  0  0  0  0  0  0
    3.9919   -2.3042    0.0000 C   0  0  0  0  0  0  0  0  0  0  0  0
    3.3276   -1.1551    0.0000 C   0  0  0  0  0  0  0  0  0  0  0  0
    3.9919    0.0000    0.0000 C   0  0  0  0  0  0  0  0  0  0  0  0
    5.3206    0.0000    0.0000 C   0  0  0  0  0  0  0  0  0  0  0  0
    5.9849   -1.1551    0.0000 N   0  0  0  0  0  0  0  0  0  0  0  0
    1.9930   -1.1551    0.0000 N   0  0  0  0  0  0  0  0  0  0  0  0
    1.3286   -2.3042    0.0000 N   0  0  0  0  0  0  0  0  0  0  0  0
    0.0000   -2.3042    0.0000 O   0  0  0  0  0  0  0  0  0  0  0  0
    1.3286    0.0000    0.0000 C   0  0  0  0  0  0  0  0  0  0  0  0
  1  2  2  0  0  0  0
  1  6  1  0  0  0  0
  2  3  1  0  0  0  0
  3  4  2  0  0  0  0
  3  7  1  0  0  0  0
  4  5  1  0  0  0  0
  5  6  2  0  0  0  0
  7  8  1  0  0  0  0
  7 10  1  0  0  0  0
  8  9  2  0  0  0  0
M  END
>  <DSSTox_RID>
21052

>  <DSSTox_CID>
1052

>  <DSSTox_Generic_SID>
21052

>  <DSSTox_FileID>
1098_CPDBAS_v5d

>  <STRUCTURE_Formula>
C6H7N3O

>  <STRUCTURE_MolecularWeight>
137.1408

>  <STRUCTURE_ChemicalType>
defined organic

>  <STRUCTURE_TestedForm_DefinedOrganic>
parent

>  <STRUCTURE_Shown>
tested chemical

>  <TestSubstance_ChemicalName>
4-Nitrosomethylaminopyridine

>  <TestSubstance_CASRN>
16219-99-1

>  <TestSubstance_Description>
single chemical compound

>  <STRUCTURE_ChemicalName_IUPAC>
N-methyl-N-nitrosopyridin-4-amine

>  <STRUCTURE_SMILES>
C1=CC(=CC=N1)N(N=O)C

>  <STRUCTURE_Parent_SMILES>
C1=CC(=CC=N1)N(N=O)C

>  <STRUCTURE_InChI>
InChI=1/C6H7N3O/c1-9(8-10)6-2-4-7-5-3-6/h2-5H,1H3

>  <STRUCTURE_InChIKey>
CNXCLASNZDZCBC-UHFFFAOYAV

>  <StudyType>
Carcinogenicity

>  <Endpoint>
TD50; Tumor Target Sites

>  <Species>
rat

>  <ActivityOutcome_CPDBAS_Mutagenicity>
inactive

>  <ActivityScore_CPDBAS_Rat>
0

>  <TD50_Rat_Note>
no positive results

>  <TargetSites_Rat_Female>
no positive results

>  <ActivityOutcome_CPDBAS_Rat>
inactive

>  <ActivityOutcome_CPDBAS_SingleCellCall>
inactive

>  <ChemicalPage_URL>
http://potency.berkeley.edu/chempages/4-NITROSOMETHYLAMINOPYRIDINE.html

$$$$



 10 10  0  0  0  0  0  0  0  0999 V2000
    1.3286    0.0000    0.0000 C   0  0  0  0  0  0  0  0  0  0  0  0
    1.9930   -1.1551    0.0000 N   0  0  0  0  0  0  0  0  0  0  0  0
    3.3276   -1.1551    0.0000 C   0  0  0  0  0  0  0  0  0  0  0  0
    3.9919    0.0000    0.0000 C   0  0  0  0  0  0  0  0  0  0  0  0
    5.3206    0.0000    0.0000 C   0  0  0  0  0  0  0  0  0  0  0  0
    5.9849   -1.1551    0.0000 C   0  0  0  0  0  0  0  0  0  0  0  0
    5.3206   -2.3042    0.0000 C   0  0  0  0  0  0  0  0  0  0  0  0
    3.9919   -2.3042    0.0000 C   0  0  0  0  0  0  0  0  0  0  0  0
    1.3286   -2.3042    0.0000 N   0  0  0  0  0  0  0  0  0  0  0  0
    0.0000   -2.3042    0.0000 O   0  0  0  0  0  0  0  0  0  0  0  0
  1  2  1  0  0  0  0
  2  3  1  0  0  0  0
  2  9  1  0  0  0  0
  3  4  2  0  0  0  0
  3  8  1  0  0  0  0
  4  5  1  0  0  0  0
  5  6  2  0  0  0  0
  6  7  1  0  0  0  0
  7  8  2  0  0  0  0
  9 10  2  0  0  0  0
M  END
>  <DSSTox_RID>
21053

>  <DSSTox_CID>
1053

>  <DSSTox_Generic_SID>
21053

>  <DSSTox_FileID>
1099_CPDBAS_v5d

>  <STRUCTURE_Formula>
C7H8N2O

>  <STRUCTURE_MolecularWeight>
136.153

>  <STRUCTURE_ChemicalType>
defined organic

>  <STRUCTURE_TestedForm_DefinedOrganic>
parent

>  <STRUCTURE_Shown>
tested chemical

>  <TestSubstance_ChemicalName>
Nitrosomethylaniline

>  <TestSubstance_CASRN>
614-00-6

>  <TestSubstance_Description>
single chemical compound

>  <STRUCTURE_ChemicalName_IUPAC>
N-methyl-N-nitrosoaniline

>  <STRUCTURE_SMILES>
CN(C1=CC=CC=C1)N=O

>  <STRUCTURE_Parent_SMILES>
CN(C1=CC=CC=C1)N=O

>  <STRUCTURE_InChI>
InChI=1/C7H8N2O/c1-9(8-10)7-5-3-2-4-6-7/h2-6H,1H3

>  <STRUCTURE_InChIKey>
MAXCWSIJKVASQC-UHFFFAOYAE

>  <StudyType>
Carcinogenicity

>  <Endpoint>
TD50; Tumor Target Sites

>  <Species>
rat

>  <TD50_Rat_mg>
0.142

>  <TD50_Rat_mmol>
0.00104

>  <ActivityScore_CPDBAS_Rat>
57

>  <TD50_Rat_Note>
TD50 is harmonic mean of more than one positive test; harmonic mean of TD50 includes a value for upper 99% confidence limit from study with 100% tumor incidence but no lifetable; greater than ten-fold variation among TD50 values for positive results

>  <TargetSites_Rat_Male>
esophagus

>  <TargetSites_Rat_Female>
esophagus

>  <ActivityOutcome_CPDBAS_Rat>
active

>  <ActivityOutcome_CPDBAS_SingleCellCall>
active

>  <ActivityOutcome_CPDBAS_MultiCellCall>
active

>  <ActivityOutcome_CPDBAS_MultiCellCall_Details>
multisex active

>  <Note_CPDBAS>
TD50_Rat_Note modified v5a

>  <ChemicalPage_URL>
http://potency.berkeley.edu/chempages/NITROSOMETHYLANILINE.html

$$$$



 19 20  0  0  0  0  0  0  0  0999 V2000
    0.0000   -3.9930    0.0000 C   0  0  0  0  0  0  0  0  0  0  0  0
    0.0000   -2.6597    0.0000 C   0  0  0  0  0  0  0  0  0  0  0  0
    1.1537   -1.9965    0.0000 C   0  0  0  0  0  0  0  0  0  0  0  0
    2.3005   -2.6597    0.0000 C   0  0  0  0  0  0  0  0  0  0  0  0
    3.4541   -1.9965    0.0000 C   0  0  3  0  0  0  0  0  0  0  0  0
    3.4541   -0.6701    0.0000 C   0  0  0  0  0  0  0  0  0  0  0  0
    4.6078    0.0000    0.0000 O   0  0  0  0  0  0  0  0  0  0  0  0
    2.3005    0.0000    0.0000 O   0  0  0  0  0  0  0  0  0  0  0  0
    1.1537   -0.6701    0.0000 C   0  0  0  0  0  0  0  0  0  0  0  0
    4.6078   -2.6597    0.0000 C   0  0  3  0  0  0  0  0  0  0  0  0
    5.7546   -1.9965    0.0000 N   0  0  0  0  0  0  0  0  0  0  0  0
    5.7546   -0.6701    0.0000 N   0  0  0  0  0  0  0  0  0  0  0  0
    6.9083    0.0000    0.0000 O   0  0  0  0  0  0  0  0  0  0  0  0
    6.9083   -2.6597    0.0000 C   0  0  0  0  0  0  0  0  0  0  0  0
    6.9083   -3.9930    0.0000 C   0  0  0  0  0  0  0  0  0  0  0  0
    4.6078   -3.9930    0.0000 C   0  0  0  0  0  0  0  0  0  0  0  0
    5.7546   -4.6562    0.0000 C   0  0  0  0  0  0  0  0  0  0  0  0
    1.1537   -4.6562    0.0000 C   0  0  0  0  0  0  0  0  0  0  0  0
    2.3005   -3.9930    0.0000 C   0  0  0  0  0  0  0  0  0  0  0  0
  1  2  2  0  0  0  0
  1 18  1  0  0  0  0
  2  3  1  0  0  0  0
  3  4  2  0  0  0  0
  4  5  1  0  0  0  0
  4 19  1  0  0  0  0
  5  6  1  0  0  0  0
  5 10  1  0  0  0  0
  6  7  2  0  0  0  0
  6  8  1  0  0  0  0
  8  9  1  0  0  0  0
 10 11  1  0  0  0  0
 10 16  1  0  0  0  0
 11 12  1  0  0  0  0
 11 14  1  0  0  0  0
 12 13  2  0  0  0  0
 14 15  1  0  0  0  0
 15 17  1  0  0  0  0
 16 17  1  0  0  0  0
 18 19  2  0  0  0  0
M  END
>  <DSSTox_RID>
21054

>  <DSSTox_CID>
1054

>  <DSSTox_Generic_SID>
21054

>  <DSSTox_FileID>
1100_CPDBAS_v5d

>  <STRUCTURE_Formula>
C14H18N2O3

>  <STRUCTURE_MolecularWeight>
262.3078

>  <STRUCTURE_ChemicalType>
defined organic

>  <STRUCTURE_TestedForm_DefinedOrganic>
parent

>  <STRUCTURE_Shown>
tested chemical

>  <TestSubstance_ChemicalName>
Nitrosomethylphenidate

>  <TestSubstance_CASRN>
55557-03-4

>  <TestSubstance_Description>
single chemical compound

>  <STRUCTURE_ChemicalName_IUPAC>
methyl (1-nitrosopiperidin-2-yl)(phenyl)acetate

>  <STRUCTURE_SMILES>
C1=CC=C(C(C(=O)OC)C2N(N=O)CCCC2)C=C1

>  <STRUCTURE_Parent_SMILES>
C1=CC=C(C(C(=O)OC)C2N(N=O)CCCC2)C=C1

>  <STRUCTURE_InChI>
InChI=1/C14H18N2O3/c1-19-14(17)13(11-7-3-2-4-8-11)12-9-5-6-10-16(12)15-18/h2-4,7-8,12-13H,5-6,9-10H2,1H3

>  <STRUCTURE_InChIKey>
QGSDAATWYASQKL-UHFFFAOYAA

>  <StudyType>
Carcinogenicity

>  <Endpoint>
TD50; Tumor Target Sites

>  <Species>
mouse

>  <ActivityScore_CPDBAS_Mouse>
0

>  <TD50_Mouse_Note>
no positive results

>  <TargetSites_Mouse_Male>
no positive results

>  <TargetSites_Mouse_Female>
no positive results

>  <ActivityOutcome_CPDBAS_Mouse>
inactive

>  <ActivityOutcome_CPDBAS_SingleCellCall>
inactive

>  <ActivityOutcome_CPDBAS_MultiCellCall>
inactive

>  <ActivityOutcome_CPDBAS_MultiCellCall_Details>
multisex inactive

>  <ChemicalPage_URL>
http://potency.berkeley.edu/chempages/NITROSOMETHYLPHENIDATE.html

$$$$



 15 14  0  0  0  0  0  0  0  0999 V2000
    2.3106    0.0000    0.0000 C   0  0  0  0  0  0  0  0  0  0  0  0
    2.3106   -1.3353    0.0000 N   0  0  0  0  0  0  0  0  0  0  0  0
    3.4658   -1.9955    0.0000 C   0  0  0  0  0  0  0  0  0  0  0  0
    4.6211   -1.3353    0.0000 C   0  0  0  0  0  0  0  0  0  0  0  0
    5.7764   -1.9955    0.0000 C   0  0  0  0  0  0  0  0  0  0  0  0
    6.9317   -1.3353    0.0000 C   0  0  0  0  0  0  0  0  0  0  0  0
    8.0719   -1.9955    0.0000 C   0  0  0  0  0  0  0  0  0  0  0  0
    9.2272   -1.3353    0.0000 C   0  0  0  0  0  0  0  0  0  0  0  0
   10.3825   -1.9955    0.0000 C   0  0  0  0  0  0  0  0  0  0  0  0
   11.5378   -1.3353    0.0000 C   0  0  0  0  0  0  0  0  0  0  0  0
   12.6930   -1.9955    0.0000 C   0  0  0  0  0  0  0  0  0  0  0  0
   13.8483   -1.3353    0.0000 C   0  0  0  0  0  0  0  0  0  0  0  0
   15.0036   -1.9955    0.0000 C   0  0  0  0  0  0  0  0  0  0  0  0
    1.1553   -1.9955    0.0000 N   0  0  0  0  0  0  0  0  0  0  0  0
    0.0000   -1.3353    0.0000 O   0  0  0  0  0  0  0  0  0  0  0  0
  1  2  1  0  0  0  0
  2  3  1  0  0  0  0
  2 14  1  0  0  0  0
  3  4  1  0  0  0  0
  4  5  1  0  0  0  0
  5  6  1  0  0  0  0
  6  7  1  0  0  0  0
  7  8  1  0  0  0  0
  8  9  1  0  0  0  0
  9 10  1  0  0  0  0
 10 11  1  0  0  0  0
 11 12  1  0  0  0  0
 12 13  1  0  0  0  0
 14 15  2  0  0  0  0
M  END
>  <DSSTox_RID>
21055

>  <DSSTox_CID>
1055

>  <DSSTox_Generic_SID>
21055

>  <DSSTox_FileID>
1101_CPDBAS_v5d

>  <STRUCTURE_Formula>
C12H26N2O

>  <STRUCTURE_MolecularWeight>
214.3502

>  <STRUCTURE_ChemicalType>
defined organic

>  <STRUCTURE_TestedForm_DefinedOrganic>
parent

>  <STRUCTURE_Shown>
tested chemical

>  <TestSubstance_ChemicalName>
Nitrosomethylundecylamine

>  <TestSubstance_CASRN>
68107-26-6

>  <TestSubstance_Description>
single chemical compound

>  <STRUCTURE_ChemicalName_IUPAC>
N-methyl-N-nitrosoundecan-1-amine

>  <STRUCTURE_SMILES>
CN(CCCCCCCCCCC)N=O

>  <STRUCTURE_Parent_SMILES>
CN(CCCCCCCCCCC)N=O

>  <STRUCTURE_InChI>
InChI=1/C12H26N2O/c1-3-4-5-6-7-8-9-10-11-12-14(2)13-15/h3-12H2,1-2H3

>  <STRUCTURE_InChIKey>
TZBWQIWBMMBFBF-UHFFFAOYAJ

>  <StudyType>
Carcinogenicity

>  <Endpoint>
TD50; Tumor Target Sites

>  <Species>
rat

>  <TD50_Rat_mg>
2.37

>  <TD50_Rat_mmol>
0.0111

>  <ActivityScore_CPDBAS_Rat>
46

>  <TargetSites_Rat_Male>
liver; lung

>  <ActivityOutcome_CPDBAS_Rat>
active

>  <ActivityOutcome_CPDBAS_SingleCellCall>
active

>  <ActivityOutcome_CPDBAS_MultiCellCall>
active

>  <ActivityOutcome_CPDBAS_MultiCellCall_Details>
multisite active

>  <ChemicalPage_URL>
http://potency.berkeley.edu/chempages/NITROSOMETHYLUNDECYLAMINE.html

$$$$



  8  8  0  0  0  0  0  0  0  0999 V2000
    0.0000    0.0000    0.0000 O   0  0  0  0  0  0  0  0  0  0  0  0
    0.6654   -1.1540    0.0000 N   0  0  0  0  0  0  0  0  0  0  0  0
    1.9962   -1.1540    0.0000 N   0  0  0  0  0  0  0  0  0  0  0  0
    2.6569    0.0000    0.0000 C   0  0  0  0  0  0  0  0  0  0  0  0
    3.9877    0.0000    0.0000 C   0  0  0  0  0  0  0  0  0  0  0  0
    4.6531   -1.1540    0.0000 O   0  0  0  0  0  0  0  0  0  0  0  0
    3.9877   -2.3033    0.0000 C   0  0  0  0  0  0  0  0  0  0  0  0
    2.6569   -2.3033    0.0000 C   0  0  0  0  0  0  0  0  0  0  0  0
  1  2  2  0  0  0  0
  2  3  1  0  0  0  0
  3  4  1  0  0  0  0
  3  8  1  0  0  0  0
  4  5  1  0  0  0  0
  5  6  1  0  0  0  0
  6  7  1  0  0  0  0
  7  8  1  0  0  0  0
M  END
>  <DSSTox_RID>
21056

>  <DSSTox_CID>
1056

>  <DSSTox_Generic_SID>
21056

>  <DSSTox_FileID>
1102_CPDBAS_v5d

>  <STRUCTURE_Formula>
C4H8N2O2

>  <STRUCTURE_MolecularWeight>
116.1185

>  <STRUCTURE_ChemicalType>
defined organic

>  <STRUCTURE_TestedForm_DefinedOrganic>
parent

>  <STRUCTURE_Shown>
tested chemical

>  <TestSubstance_ChemicalName>
N-Nitrosomorpholine

>  <TestSubstance_CASRN>
59-89-2

>  <TestSubstance_Description>
single chemical compound

>  <STRUCTURE_ChemicalName_IUPAC>
4-nitrosomorpholine

>  <STRUCTURE_SMILES>
O=NN1CCOCC1

>  <STRUCTURE_Parent_SMILES>
O=NN1CCOCC1

>  <STRUCTURE_InChI>
InChI=1/C4H8N2O2/c7-5-6-1-3-8-4-2-6/h1-4H2

>  <STRUCTURE_InChIKey>
ZKXDGKXYMTYWTB-UHFFFAOYAO

>  <StudyType>
Carcinogenicity

>  <Endpoint>
TD50; Tumor Target Sites

>  <Species>
rat; hamster

>  <ActivityOutcome_CPDBAS_Mutagenicity>
active

>  <TD50_Rat_mg>
0.109

>  <TD50_Rat_mmol>
0.000939

>  <ActivityScore_CPDBAS_Rat>
57

>  <TD50_Rat_Note>
TD50 is harmonic mean of more than one positive test

>  <TargetSites_Rat_Female>
liver; vascular system

>  <ActivityOutcome_CPDBAS_Rat>
active

>  <TD50_Hamster_mg>
3.57

>  <TD50_Hamster_mmol>
0.0307

>  <ActivityScore_CPDBAS_Hamster>
63

>  <TD50_Hamster_Note>
TD50 is harmonic mean of more than one positive test

>  <TargetSites_Hamster_Male>
liver; nasal cavity; oral cavity

>  <TargetSites_Hamster_Female>
liver; nasal cavity; oral cavity

>  <ActivityOutcome_CPDBAS_Hamster>
active

>  <ActivityOutcome_CPDBAS_SingleCellCall>
active

>  <ActivityOutcome_CPDBAS_MultiCellCall>
active

>  <ActivityOutcome_CPDBAS_MultiCellCall_Details>
multisite active; multisex active; multispecies active

>  <ChemicalPage_URL>
http://potency.berkeley.edu/chempages/N-NITROSOMORPHOLINE.html

$$$$



 13 14  0  0  0  0  0  0  0  0999 V2000
    2.2670    0.0000    0.0000 N   0  0  0  0  0  0  0  0  0  0  0  0
    3.5961    0.0000    0.0000 C   0  0  0  0  0  0  0  0  0  0  0  0
    4.2606   -1.1490    0.0000 C   0  0  0  0  0  0  0  0  0  0  0  0
    3.5961   -2.3042    0.0000 C   0  0  0  0  0  0  0  0  0  0  0  0
    2.2670   -2.3042    0.0000 C   0  0  0  0  0  0  0  0  0  0  0  0
    1.5962   -1.1490    0.0000 C   0  0  0  0  0  0  0  0  0  0  0  0
    1.5962   -3.4532    0.0000 C   0  0  3  0  0  0  0  0  0  0  0  0
    2.1427   -4.6705    0.0000 N   0  0  0  0  0  0  0  0  0  0  0  0
    3.4408   -4.9438    0.0000 N   0  0  0  0  0  0  0  0  0  0  0  0
    3.8507   -6.2108    0.0000 O   0  0  0  0  0  0  0  0  0  0  0  0
    1.1490   -5.5587    0.0000 C   0  0  0  0  0  0  0  0  0  0  0  0
    0.0000   -4.8941    0.0000 C   0  0  0  0  0  0  0  0  0  0  0  0
    0.2795   -3.5961    0.0000 C   0  0  0  0  0  0  0  0  0  0  0  0
  1  2  1  0  0  0  0
  1  6  2  0  0  0  0
  2  3  2  0  0  0  0
  3  4  1  0  0  0  0
  4  5  2  0  0  0  0
  5  6  1  0  0  0  0
  5  7  1  0  0  0  0
  7  8  1  0  0  0  0
  7 13  1  0  0  0  0
  8  9  1  0  0  0  0
  8 11  1  0  0  0  0
  9 10  2  0  0  0  0
 11 12  1  0  0  0  0
 12 13  1  0  0  0  0
M  END
>  <DSSTox_RID>
21476

>  <DSSTox_CID>
1476

>  <DSSTox_Generic_SID>
21476

>  <DSSTox_FileID>
1103_CPDBAS_v5d

>  <STRUCTURE_Formula>
C9H11N3O

>  <STRUCTURE_MolecularWeight>
177.2054

>  <STRUCTURE_ChemicalType>
defined organic

>  <STRUCTURE_TestedForm_DefinedOrganic>
parent

>  <STRUCTURE_Shown>
tested chemical

>  <TestSubstance_ChemicalName>
N'-Nitrosonornicotine

>  <TestSubstance_CASRN>
53759-22-1

>  <TestSubstance_Description>
single chemical compound

>  <STRUCTURE_ChemicalName_IUPAC>
3-(1-nitrosopyrrolidin-2-yl)pyridine

>  <STRUCTURE_SMILES>
N1C=CC=C(C=1)C2N(N=O)CCC2

>  <STRUCTURE_Parent_SMILES>
N1C=CC=C(C=1)C2N(N=O)CCC2

>  <STRUCTURE_InChI>
InChI=1/C9H11N3O/c13-11-12-6-2-4-9(12)8-3-1-5-10-7-8/h1,3,5,7,9H,2,4,6H2

>  <STRUCTURE_InChIKey>
XKABJYQDMJTNGQ-UHFFFAOYAU

>  <StudyType>
Carcinogenicity

>  <Endpoint>
TD50; Tumor Target Sites

>  <Species>
rat; hamster

>  <TD50_Rat_mg>
0.0957

>  <TD50_Rat_mmol>
0.00054

>  <ActivityScore_CPDBAS_Rat>
59

>  <TargetSites_Rat_Male>
esophagus

>  <ActivityOutcome_CPDBAS_Rat>
active

>  <TD50_Hamster_mg>
10.8

>  <TD50_Hamster_mmol>
0.0609

>  <ActivityScore_CPDBAS_Hamster>
55

>  <TD50_Hamster_Note>
TD50 is harmonic mean of more than one positive test

>  <TargetSites_Hamster_Male>
nasal cavity

>  <TargetSites_Hamster_Female>
nasal cavity

>  <ActivityOutcome_CPDBAS_Hamster>
active

>  <ActivityOutcome_CPDBAS_SingleCellCall>
active

>  <ActivityOutcome_CPDBAS_MultiCellCall>
active

>  <ActivityOutcome_CPDBAS_MultiCellCall_Details>
multisite active; multisex active; multispecies active

>  <Note_CPDBAS>
Hamster added v2a; Rat added v5a

>  <ChemicalPage_URL>
http://potency.berkeley.edu/chempages/N'-NITROSONORNICOTINE.html

$$$$



 14 15  0  0  0  0  0  0  0  0999 V2000
    5.5085   -1.1540    0.0000 C   0  0  0  0  0  0  0  0  0  0  0  0
    6.1727   -2.3014    0.0000 C   0  0  0  0  0  0  0  0  0  0  0  0
    5.5085   -3.4554    0.0000 C   0  0  0  0  0  0  0  0  0  0  0  0
    4.1800   -3.4554    0.0000 C   0  0  0  0  0  0  0  0  0  0  0  0
    3.5091   -2.3014    0.0000 C   0  0  0  0  0  0  0  0  0  0  0  0
    4.1800   -1.1540    0.0000 N   0  3  0  0  0  0  0  0  0  0  0  0
    3.5091    0.0000    0.0000 O   0  5  0  0  0  0  0  0  0  0  0  0
    3.5091   -4.6027    0.0000 C   0  0  3  0  0  0  0  0  0  0  0  0
    4.0525   -5.8171    0.0000 C   0  0  0  0  0  0  0  0  0  0  0  0
    3.0662   -6.7095    0.0000 C   0  0  0  0  0  0  0  0  0  0  0  0
    1.9122   -6.0453    0.0000 C   0  0  0  0  0  0  0  0  0  0  0  0
    2.1873   -4.7436    0.0000 N   0  0  0  0  0  0  0  0  0  0  0  0
    1.3016   -3.7573    0.0000 N   0  0  0  0  0  0  0  0  0  0  0  0
    0.0000   -4.0324    0.0000 O   0  0  0  0  0  0  0  0  0  0  0  0
  1  2  2  0  0  0  0
  1  6  1  0  0  0  0
  2  3  1  0  0  0  0
  3  4  2  0  0  0  0
  4  5  1  0  0  0  0
  4  8  1  0  0  0  0
  5  6  2  0  0  0  0
  6  7  1  0  0  0  0
  8  9  1  0  0  0  0
  8 12  1  0  0  0  0
  9 10  1  0  0  0  0
 10 11  1  0  0  0  0
 11 12  1  0  0  0  0
 12 13  1  0  0  0  0
 13 14  2  0  0  0  0
M  END
>  <DSSTox_RID>
21057

>  <DSSTox_CID>
1057

>  <DSSTox_Generic_SID>
21057

>  <DSSTox_FileID>
1104_CPDBAS_v5d

>  <STRUCTURE_Formula>
C9H11N3O2

>  <STRUCTURE_MolecularWeight>
193.2048

>  <STRUCTURE_ChemicalType>
defined organic

>  <STRUCTURE_TestedForm_DefinedOrganic>
parent

>  <STRUCTURE_Shown>
tested chemical

>  <TestSubstance_ChemicalName>
N'-Nitrosonornicotine-1-N-oxide

>  <TestSubstance_CASRN>
78246-24-9

>  <TestSubstance_Description>
single chemical compound

>  <STRUCTURE_ChemicalName_IUPAC>
3-(1-nitrosopyrrolidin-2-yl)pyridine 1-oxide

>  <STRUCTURE_SMILES>
C1=CC=C(C=[N+]1[O-])C2CCCN2N=O

>  <STRUCTURE_Parent_SMILES>
C1=CC=C(C=[N+]1[O-])C2CCCN2N=O

>  <STRUCTURE_InChI>
InChI=1/C9H11N3O2/c13-10-12-6-2-4-9(12)8-3-1-5-11(14)7-8/h1,3,5,7,9H,2,4,6H2

>  <STRUCTURE_InChIKey>
ZQELURDMDMQXQV-UHFFFAOYAA

>  <StudyType>
Carcinogenicity

>  <Endpoint>
TD50; Tumor Target Sites

>  <Species>
rat; hamster

>  <TD50_Rat_mg>
0.876

>  <TD50_Rat_mmol>
0.00453

>  <ActivityScore_CPDBAS_Rat>
50

>  <TD50_Rat_Note>
TD50 is harmonic mean of more than one positive test

>  <TargetSites_Rat_Male>
esophagus; nasal cavity

>  <TargetSites_Rat_Female>
esophagus; nasal cavity

>  <ActivityOutcome_CPDBAS_Rat>
active

>  <ActivityScore_CPDBAS_Hamster>
0

>  <TD50_Hamster_Note>
no positive results

>  <TargetSites_Hamster_Male>
no positive results

>  <TargetSites_Hamster_Female>
no positive results

>  <ActivityOutcome_CPDBAS_Hamster>
inactive

>  <ActivityOutcome_CPDBAS_SingleCellCall>
active

>  <ActivityOutcome_CPDBAS_MultiCellCall>
active

>  <ActivityOutcome_CPDBAS_MultiCellCall_Details>
multisite active; multisex active

>  <ChemicalPage_URL>
http://potency.berkeley.edu/chempages/N'-NITROSONORNICOTINE-1-N-OXIDE.html

$$$$



 11 11  0  0  0  0  0  0  0  0999 V2000
    2.6581    0.0000    0.0000 O   0  0  0  0  0  0  0  0  0  0  0  0
    1.9971   -1.1545    0.0000 N   0  0  0  0  0  0  0  0  0  0  0  0
    2.6581   -2.3043    0.0000 N   0  0  0  0  0  0  0  0  0  0  0  0
    3.9895   -2.3043    0.0000 C   0  0  0  0  0  0  0  0  0  0  0  0
    4.6552   -3.4588    0.0000 C   0  0  0  0  0  0  0  0  0  0  0  0
    3.9895   -4.6086    0.0000 C   0  0  0  0  0  0  0  0  0  0  0  0
    1.9971   -3.4588    0.0000 C   0  0  3  0  0  0  0  0  0  0  0  0
    2.6581   -4.6086    0.0000 C   0  0  0  0  0  0  0  0  0  0  0  0
    0.6657   -3.4588    0.0000 C   0  0  0  0  0  0  0  0  0  0  0  0
    0.0000   -4.6086    0.0000 O   0  0  0  0  0  0  0  0  0  0  0  0
    0.0000   -2.3043    0.0000 O   0  0  0  0  0  0  0  0  0  0  0  0
  1  2  2  0  0  0  0
  2  3  1  0  0  0  0
  3  4  1  0  0  0  0
  3  7  1  0  0  0  0
  4  5  1  0  0  0  0
  5  6  1  0  0  0  0
  6  8  1  0  0  0  0
  7  8  1  0  0  0  0
  7  9  1  0  0  0  0
  9 10  2  0  0  0  0
  9 11  1  0  0  0  0
M  END
>  <DSSTox_RID>
21058

>  <DSSTox_CID>
1058

>  <DSSTox_Generic_SID>
21058

>  <DSSTox_FileID>
1105_CPDBAS_v5d

>  <STRUCTURE_Formula>
C6H10N2O3

>  <STRUCTURE_MolecularWeight>
158.1566

>  <STRUCTURE_ChemicalType>
defined organic

>  <STRUCTURE_TestedForm_DefinedOrganic>
parent

>  <STRUCTURE_Shown>
tested chemical

>  <TestSubstance_ChemicalName>
Nitrosopipecolic acid

>  <TestSubstance_CASRN>
4515-18-8

>  <TestSubstance_Description>
single chemical compound

>  <STRUCTURE_ChemicalName_IUPAC>
1-nitrosopiperidine-2-carboxylic acid

>  <STRUCTURE_SMILES>
O=NN(CCC1)C(C1)C(=O)O

>  <STRUCTURE_Parent_SMILES>
O=NN(CCC1)C(C1)C(=O)O

>  <STRUCTURE_InChI>
InChI=1/C6H10N2O3/c9-6(10)5-3-1-2-4-8(5)7-11/h5H,1-4H2,(H,9,10)/f/h9H

>  <STRUCTURE_InChIKey>
DSGKTUVITPQPRT-BGGKNDAXCH

>  <StudyType>
Carcinogenicity

>  <Endpoint>
TD50; Tumor Target Sites

>  <Species>
rat

>  <ActivityScore_CPDBAS_Rat>
0

>  <TD50_Rat_Note>
no positive results

>  <TargetSites_Rat_Male>
no positive results

>  <TargetSites_Rat_Female>
no positive results

>  <ActivityOutcome_CPDBAS_Rat>
inactive

>  <ActivityOutcome_CPDBAS_SingleCellCall>
inactive

>  <ActivityOutcome_CPDBAS_MultiCellCall>
inactive

>  <ActivityOutcome_CPDBAS_MultiCellCall_Details>
multisex inactive

>  <ChemicalPage_URL>
http://potency.berkeley.edu/chempages/NITROSOPIPECOLIC%20ACID.html

$$$$



  8  8  0  0  0  0  0  0  0  0999 V2000
    0.0000    0.0000    0.0000 O   0  0  0  0  0  0  0  0  0  0  0  0
    0.6654   -1.1540    0.0000 N   0  0  0  0  0  0  0  0  0  0  0  0
    1.9962   -1.1540    0.0000 N   0  0  0  0  0  0  0  0  0  0  0  0
    2.6569    0.0000    0.0000 C   0  0  0  0  0  0  0  0  0  0  0  0
    3.9877    0.0000    0.0000 C   0  0  0  0  0  0  0  0  0  0  0  0
    4.6531   -1.1540    0.0000 N   0  0  0  0  0  0  0  0  0  0  0  0
    2.6569   -2.3033    0.0000 C   0  0  0  0  0  0  0  0  0  0  0  0
    3.9877   -2.3033    0.0000 C   0  0  0  0  0  0  0  0  0  0  0  0
  1  2  2  0  0  0  0
  2  3  1  0  0  0  0
  3  4  1  0  0  0  0
  3  7  1  0  0  0  0
  4  5  1  0  0  0  0
  5  6  1  0  0  0  0
  6  8  1  0  0  0  0
  7  8  1  0  0  0  0
M  END
>  <DSSTox_RID>
21059

>  <DSSTox_CID>
1059

>  <DSSTox_Generic_SID>
21059

>  <DSSTox_FileID>
1106_CPDBAS_v5d

>  <STRUCTURE_Formula>
C4H9N3O

>  <STRUCTURE_MolecularWeight>
115.1346

>  <STRUCTURE_ChemicalType>
defined organic

>  <STRUCTURE_TestedForm_DefinedOrganic>
parent

>  <STRUCTURE_Shown>
tested chemical

>  <TestSubstance_ChemicalName>
N-Nitrosopiperazine

>  <TestSubstance_CASRN>
5632-47-3

>  <TestSubstance_Description>
single chemical compound

>  <STRUCTURE_ChemicalName_IUPAC>
1-nitrosopiperazine

>  <STRUCTURE_SMILES>
O=NN(CCN1)CC1

>  <STRUCTURE_Parent_SMILES>
O=NN(CCN1)CC1

>  <STRUCTURE_InChI>
InChI=1/C4H9N3O/c8-6-7-3-1-5-2-4-7/h5H,1-4H2

>  <STRUCTURE_InChIKey>
CVTIZMOISGMZRJ-UHFFFAOYAH

>  <StudyType>
Carcinogenicity

>  <Endpoint>
TD50; Tumor Target Sites

>  <Species>
rat

>  <ActivityOutcome_CPDBAS_Mutagenicity>
active

>  <TD50_Rat_mg>
8.78

>  <TD50_Rat_mmol>
0.0763

>  <ActivityScore_CPDBAS_Rat>
37

>  <TD50_Rat_Note>
TD50 is harmonic mean of more than one positive test; no positive results are statistically significant

>  <TargetSites_Rat_Male>
all tumor bearing animals

>  <TargetSites_Rat_Female>
all tumor bearing animals

>  <ActivityOutcome_CPDBAS_Rat>
active

>  <ActivityOutcome_CPDBAS_SingleCellCall>
active

>  <ActivityOutcome_CPDBAS_MultiCellCall>
active

>  <ActivityOutcome_CPDBAS_MultiCellCall_Details>
multisite active; multisex active

>  <Note_CPDBAS>
TD50_Rat_Note modified v5a

>  <ChemicalPage_URL>
http://potency.berkeley.edu/chempages/N-NITROSOPIPERAZINE.html

$$$$



  8  8  0  0  0  0  0  0  0  0999 V2000
    0.0000    0.0000    0.0000 O   0  0  0  0  0  0  0  0  0  0  0  0
    0.6654   -1.1540    0.0000 N   0  0  0  0  0  0  0  0  0  0  0  0
    1.9962   -1.1540    0.0000 N   0  0  0  0  0  0  0  0  0  0  0  0
    2.6569    0.0000    0.0000 C   0  0  0  0  0  0  0  0  0  0  0  0
    3.9877    0.0000    0.0000 C   0  0  0  0  0  0  0  0  0  0  0  0
    4.6531   -1.1540    0.0000 C   0  0  0  0  0  0  0  0  0  0  0  0
    3.9877   -2.3033    0.0000 C   0  0  0  0  0  0  0  0  0  0  0  0
    2.6569   -2.3033    0.0000 C   0  0  0  0  0  0  0  0  0  0  0  0
  1  2  2  0  0  0  0
  2  3  1  0  0  0  0
  3  4  1  0  0  0  0
  3  8  1  0  0  0  0
  4  5  1  0  0  0  0
  5  6  1  0  0  0  0
  6  7  1  0  0  0  0
  7  8  1  0  0  0  0
M  END
>  <DSSTox_RID>
21060

>  <DSSTox_CID>
1060

>  <DSSTox_Generic_SID>
21060

>  <DSSTox_FileID>
1107_CPDBAS_v5d

>  <STRUCTURE_Formula>
C5H10N2O

>  <STRUCTURE_MolecularWeight>
114.1457

>  <STRUCTURE_ChemicalType>
defined organic

>  <STRUCTURE_TestedForm_DefinedOrganic>
parent

>  <STRUCTURE_Shown>
tested chemical

>  <TestSubstance_ChemicalName>
N-Nitrosopiperidine

>  <TestSubstance_CASRN>
100-75-4

>  <TestSubstance_Description>
single chemical compound

>  <STRUCTURE_ChemicalName_IUPAC>
1-nitrosopiperidine

>  <STRUCTURE_SMILES>
O=NN1CCCCC1

>  <STRUCTURE_Parent_SMILES>
O=NN1CCCCC1

>  <STRUCTURE_InChI>
InChI=1/C5H10N2O/c8-6-7-4-2-1-3-5-7/h1-5H2

>  <STRUCTURE_InChIKey>
UWSDONTXWQOZFN-UHFFFAOYAQ

>  <StudyType>
Carcinogenicity

>  <Endpoint>
TD50; Tumor Target Sites

>  <Species>
rat; mouse; hamster; rhesus; cynomolgus

>  <ActivityOutcome_CPDBAS_Mutagenicity>
active

>  <TD50_Rat_mg>
1.43

>  <TD50_Rat_mmol>
0.0125

>  <ActivityScore_CPDBAS_Rat>
45

>  <TD50_Rat_Note>
TD50 is harmonic mean of more than one positive test

>  <TargetSites_Rat_BothSexes>
esophagus; liver; nasal cavity

>  <ActivityOutcome_CPDBAS_Rat>
active

>  <TD50_Mouse_mg>
1.3

>  <TD50_Mouse_mmol>
0.0114

>  <ActivityScore_CPDBAS_Mouse>
50

>  <TargetSites_Mouse_Male>
liver; lung; stomach

>  <ActivityOutcome_CPDBAS_Mouse>
active

>  <TD50_Hamster_mg>
83.3

>  <TD50_Hamster_mmol>
0.73

>  <ActivityScore_CPDBAS_Hamster>
29

>  <TD50_Hamster_Note>
TD50 is harmonic mean of more than one positive test

>  <TargetSites_Hamster_Male>
liver; nasal cavity; oral cavity

>  <TargetSites_Hamster_Female>
liver; nasal cavity; oral cavity

>  <ActivityOutcome_CPDBAS_Hamster>
active

>  <TD50_Rhesus_mg>
2.76

>  <TargetSites_Rhesus>
liver

>  <TD50_Cynomolgus_mg>
12.1

>  <TargetSites_Cynomolgus>
liver

>  <TD50_Dog_Primates_Note>
TD50_Rhesus is harmonic mean of more than one positive test

>  <ActivityOutcome_CPDBAS_Dog_Primates>
active

>  <ActivityOutcome_CPDBAS_SingleCellCall>
active

>  <ActivityOutcome_CPDBAS_MultiCellCall>
active

>  <ActivityOutcome_CPDBAS_MultiCellCall_Details>
multisite active; multisex active; multispecies active

>  <Note_CPDBAS>
TD50_Rat_Note modified v5a

>  <ChemicalPage_URL>
http://potency.berkeley.edu/chempages/N-NITROSOPIPERIDINE.html

$$$$



 10 10  0  0  1  0  0  0  0  0999 V2000
    3.3060    0.0000    0.0000 O   0  0  0  0  0  0  0  0  0  0  0  0
    2.3665   -0.9395    0.0000 N   0  0  0  0  0  0  0  0  0  0  0  0
    2.7742   -2.2025    0.0000 N   0  0  0  0  0  0  0  0  0  0  0  0
    4.0416   -2.6146    0.0000 C   0  0  0  0  0  0  0  0  0  0  0  0
    4.0416   -3.9441    0.0000 C   0  0  0  0  0  0  0  0  0  0  0  0
    1.9942   -3.2794    0.0000 C   0  0  1  0  0  0  0  0  0  0  0  0
    2.7742   -4.3562    0.0000 C   0  0  0  0  0  0  0  0  0  0  0  0
    0.6647   -3.2794    0.0000 C   0  0  0  0  0  0  0  0  0  0  0  0
    0.0000   -4.4316    0.0000 O   0  0  0  0  0  0  0  0  0  0  0  0
    0.0000   -2.1272    0.0000 O   0  0  0  0  0  0  0  0  0  0  0  0
  1  2  2  0  0  0  0
  2  3  1  0  0  0  0
  3  4  1  0  0  0  0
  3  6  1  0  0  0  0
  4  5  1  0  0  0  0
  5  7  1  0  0  0  0
  6  7  1  0  0  0  0
  6  8  1  1  0  0  0
  8  9  2  0  0  0  0
  8 10  1  0  0  0  0
M  END
>  <DSSTox_RID>
21061

>  <DSSTox_CID>
1061

>  <DSSTox_Generic_SID>
21061

>  <DSSTox_FileID>
1108_CPDBAS_v5d

>  <STRUCTURE_Formula>
C5H8N2O3

>  <STRUCTURE_MolecularWeight>
144.1298

>  <STRUCTURE_ChemicalType>
defined organic

>  <STRUCTURE_TestedForm_DefinedOrganic>
parent

>  <STRUCTURE_Shown>
tested chemical

>  <TestSubstance_ChemicalName>
Nitrosoproline

>  <TestSubstance_CASRN>
7519-36-0

>  <TestSubstance_Description>
single chemical compound

>  <ChemicalNote>
stereochem

>  <STRUCTURE_ChemicalName_IUPAC>
1-nitroso-L-proline

>  <STRUCTURE_SMILES>
O=NN1CCC[C@H]1[C@@](O)=O

>  <STRUCTURE_Parent_SMILES>
O=NN1CCC[C@H]1[C@@](O)=O

>  <STRUCTURE_InChI>
InChI=1/C5H8N2O3/c8-5(9)4-2-1-3-7(4)6-10/h4H,1-3H2,(H,8,9)/t4-/m0/s1/f/h8H

>  <STRUCTURE_InChIKey>
WLKPHJWEIIAIFW-PLBDYLFSDF

>  <StudyType>
Carcinogenicity

>  <Endpoint>
TD50; Tumor Target Sites

>  <Species>
rat

>  <ActivityScore_CPDBAS_Rat>
0

>  <TD50_Rat_Note>
no positive results

>  <TargetSites_Rat_Male>
no positive results

>  <TargetSites_Rat_Female>
no positive results

>  <ActivityOutcome_CPDBAS_Rat>
inactive

>  <ActivityOutcome_CPDBAS_SingleCellCall>
inactive

>  <ActivityOutcome_CPDBAS_MultiCellCall>
inactive

>  <ActivityOutcome_CPDBAS_MultiCellCall_Details>
multisex inactive

>  <Note_CPDBAS>
structure modified v5c

>  <ChemicalPage_URL>
http://potency.berkeley.edu/chempages/NITROSOPROLINE.html

$$$$



  7  7  0  0  0  0  0  0  0  0999 V2000
    0.0000   -1.5998    0.0000 O   0  0  0  0  0  0  0  0  0  0  0  0
    1.1503   -2.2653    0.0000 N   0  0  0  0  0  0  0  0  0  0  0  0
    2.3050   -1.5998    0.0000 N   0  0  0  0  0  0  0  0  0  0  0  0
    2.4416   -0.2777    0.0000 C   0  0  0  0  0  0  0  0  0  0  0  0
    3.7417    0.0000    0.0000 C   0  0  0  0  0  0  0  0  0  0  0  0
    4.4072   -1.1547    0.0000 C   0  0  0  0  0  0  0  0  0  0  0  0
    3.5169   -2.1419    0.0000 C   0  0  0  0  0  0  0  0  0  0  0  0
  1  2  2  0  0  0  0
  2  3  1  0  0  0  0
  3  4  1  0  0  0  0
  3  7  1  0  0  0  0
  4  5  1  0  0  0  0
  5  6  1  0  0  0  0
  6  7  1  0  0  0  0
M  END
>  <DSSTox_RID>
21062

>  <DSSTox_CID>
1062

>  <DSSTox_Generic_SID>
21062

>  <DSSTox_FileID>
1109_CPDBAS_v5d

>  <STRUCTURE_Formula>
C4H8N2O

>  <STRUCTURE_MolecularWeight>
100.12

>  <STRUCTURE_ChemicalType>
defined organic

>  <STRUCTURE_TestedForm_DefinedOrganic>
parent

>  <STRUCTURE_Shown>
tested chemical

>  <TestSubstance_ChemicalName>
N-Nitrosopyrrolidine

>  <TestSubstance_CASRN>
930-55-2

>  <TestSubstance_Description>
single chemical compound

>  <STRUCTURE_ChemicalName_IUPAC>
1-nitrosopyrrolidine

>  <STRUCTURE_SMILES>
O=NN1CCCC1

>  <STRUCTURE_Parent_SMILES>
O=NN1CCCC1

>  <STRUCTURE_InChI>
InChI=1/C4H8N2O/c7-5-6-3-1-2-4-6/h1-4H2

>  <STRUCTURE_InChIKey>
WNYADZVDBIBLJJ-UHFFFAOYAH

>  <StudyType>
Carcinogenicity

>  <Endpoint>
TD50; Tumor Target Sites

>  <Species>
rat; mouse; hamster

>  <ActivityOutcome_CPDBAS_Mutagenicity>
active

>  <TD50_Rat_mg>
0.799

>  <TD50_Rat_mmol>
0.00798

>  <ActivityScore_CPDBAS_Rat>
47

>  <TD50_Rat_Note>
TD50 is harmonic mean of more than one positive test; harmonic mean of TD50 includes a value for upper 99% confidence limit from study with 100% tumor incidence but no lifetable

>  <TargetSites_Rat_Male>
kidney; liver

>  <TargetSites_Rat_Female>
liver; vascular system

>  <ActivityOutcome_CPDBAS_Rat>
active

>  <TD50_Mouse_mg>
0.679

>  <TD50_Mouse_mmol>
0.00678

>  <ActivityScore_CPDBAS_Mouse>
53

>  <TargetSites_Mouse_Male>
all tumor bearing animals

>  <ActivityOutcome_CPDBAS_Mouse>
active

>  <TD50_Hamster_mg>
14.2

>  <TD50_Hamster_mmol>
0.142

>  <ActivityScore_CPDBAS_Hamster>
47

>  <TD50_Hamster_Note>
TD50 is harmonic mean of more than one positive test

>  <TargetSites_Hamster_Male>
liver

>  <TargetSites_Hamster_Female>
liver

>  <ActivityOutcome_CPDBAS_Hamster>
active

>  <ActivityOutcome_CPDBAS_SingleCellCall>
active

>  <ActivityOutcome_CPDBAS_MultiCellCall>
active

>  <ActivityOutcome_CPDBAS_MultiCellCall_Details>
multisite active; multisex active; multispecies active

>  <Note_CPDBAS>
TD50_Rat_Note modified v5a

>  <ChemicalPage_URL>
http://potency.berkeley.edu/chempages/N-NITROSOPYRROLIDINE.html

$$$$



 11 11  0  0  0  0  0  0  0  0999 V2000
    1.9918    0.0000    0.0000 C   0  0  0  0  0  0  0  0  0  0  0  0
    2.6558   -1.1544    0.0000 C   0  0  3  0  0  0  0  0  0  0  0  0
    3.9896   -1.1544    0.0000 S   0  0  0  0  0  0  0  0  0  0  0  0
    4.6536   -2.3029    0.0000 C   0  0  0  0  0  0  0  0  0  0  0  0
    3.9896   -3.4573    0.0000 S   0  0  0  0  0  0  0  0  0  0  0  0
    2.6558   -3.4573    0.0000 C   0  0  3  0  0  0  0  0  0  0  0  0
    1.9918   -2.3029    0.0000 N   0  0  0  0  0  0  0  0  0  0  0  0
    0.6639   -2.3029    0.0000 N   0  0  0  0  0  0  0  0  0  0  0  0
    0.0000   -3.4573    0.0000 O   0  0  0  0  0  0  0  0  0  0  0  0
    1.9918   -4.6057    0.0000 C   0  0  0  0  0  0  0  0  0  0  0  0
    5.9814   -2.3029    0.0000 C   0  0  0  0  0  0  0  0  0  0  0  0
  1  2  1  0  0  0  0
  2  3  1  0  0  0  0
  2  7  1  0  0  0  0
  3  4  1  0  0  0  0
  4  5  1  0  0  0  0
  4 11  1  0  0  0  0
  5  6  1  0  0  0  0
  6  7  1  0  0  0  0
  6 10  1  0  0  0  0
  7  8  1  0  0  0  0
  8  9  2  0  0  0  0
M  END
>  <DSSTox_RID>
21063

>  <DSSTox_CID>
1063

>  <DSSTox_Generic_SID>
21063

>  <DSSTox_FileID>
1110_CPDBAS_v5d

>  <STRUCTURE_Formula>
C6H12N2OS2

>  <STRUCTURE_MolecularWeight>
192.2936

>  <STRUCTURE_ChemicalType>
defined organic

>  <STRUCTURE_TestedForm_DefinedOrganic>
parent

>  <STRUCTURE_Shown>
tested chemical

>  <TestSubstance_ChemicalName>
N-Nitrosothialdine

>  <TestSubstance_CASRN>
81795-07-5

>  <TestSubstance_Description>
single chemical compound

>  <STRUCTURE_ChemicalName_IUPAC>
2,4,6-trimethyl-5-nitroso-1,3,5-dithiazinane

>  <STRUCTURE_SMILES>
CC1SC(SC(N1N=O)C)C

>  <STRUCTURE_Parent_SMILES>
CC1SC(SC(N1N=O)C)C

>  <STRUCTURE_InChI>
InChI=1/C6H12N2OS2/c1-4-8(7-9)5(2)11-6(3)10-4/h4-6H,1-3H3

>  <STRUCTURE_InChIKey>
HAKZNKDZKQNRNW-UHFFFAOYAL

>  <StudyType>
Carcinogenicity

>  <Endpoint>
TD50; Tumor Target Sites

>  <Species>
rat

>  <TD50_Rat_mg>
0.483

>  <TD50_Rat_mmol>
0.00251

>  <ActivityScore_CPDBAS_Rat>
53

>  <TargetSites_Rat_Female>
esophagus; liver; oral cavity

>  <ActivityOutcome_CPDBAS_Rat>
active

>  <ActivityOutcome_CPDBAS_SingleCellCall>
active

>  <ActivityOutcome_CPDBAS_MultiCellCall>
active

>  <ActivityOutcome_CPDBAS_MultiCellCall_Details>
multisite active

>  <ChemicalPage_URL>
http://potency.berkeley.edu/chempages/N-NITROSOTHIALDINE.html

$$$$



  8  8  0  0  0  0  0  0  0  0999 V2000
    0.0000    0.0000    0.0000 O   0  0  0  0  0  0  0  0  0  0  0  0
    0.6654   -1.1540    0.0000 N   0  0  0  0  0  0  0  0  0  0  0  0
    1.9962   -1.1540    0.0000 N   0  0  0  0  0  0  0  0  0  0  0  0
    2.6569    0.0000    0.0000 C   0  0  0  0  0  0  0  0  0  0  0  0
    3.9877    0.0000    0.0000 C   0  0  0  0  0  0  0  0  0  0  0  0
    4.6531   -1.1540    0.0000 S   0  0  0  0  0  0  0  0  0  0  0  0
    3.9877   -2.3033    0.0000 C   0  0  0  0  0  0  0  0  0  0  0  0
    2.6569   -2.3033    0.0000 C   0  0  0  0  0  0  0  0  0  0  0  0
  1  2  2  0  0  0  0
  2  3  1  0  0  0  0
  3  4  1  0  0  0  0
  3  8  1  0  0  0  0
  4  5  1  0  0  0  0
  5  6  1  0  0  0  0
  6  7  1  0  0  0  0
  7  8  1  0  0  0  0
M  END
>  <DSSTox_RID>
21064

>  <DSSTox_CID>
1064

>  <DSSTox_Generic_SID>
21064

>  <DSSTox_FileID>
1111_CPDBAS_v5d

>  <STRUCTURE_Formula>
C4H8N2OS

>  <STRUCTURE_MolecularWeight>
132.18

>  <STRUCTURE_ChemicalType>
defined organic

>  <STRUCTURE_TestedForm_DefinedOrganic>
parent

>  <STRUCTURE_Shown>
tested chemical

>  <TestSubstance_ChemicalName>
N-Nitrosothiomorpholine

>  <TestSubstance_CASRN>
26541-51-5

>  <TestSubstance_Description>
single chemical compound

>  <STRUCTURE_ChemicalName_IUPAC>
4-nitrosothiomorpholine

>  <STRUCTURE_SMILES>
O=NN1CCSCC1

>  <STRUCTURE_Parent_SMILES>
O=NN1CCSCC1

>  <STRUCTURE_InChI>
InChI=1/C4H8N2OS/c7-5-6-1-3-8-4-2-6/h1-4H2

>  <STRUCTURE_InChIKey>
OMDNEQQMLDYBTR-UHFFFAOYAE

>  <StudyType>
Carcinogenicity

>  <Endpoint>
TD50; Tumor Target Sites

>  <Species>
rat

>  <ActivityOutcome_CPDBAS_Mutagenicity>
active

>  <TD50_Rat_mg>
5.39

>  <TD50_Rat_mmol>
0.0408

>  <ActivityScore_CPDBAS_Rat>
40

>  <TD50_Rat_Note>
TD50 is harmonic mean of more than one positive test

>  <TargetSites_Rat_Male>
esophagus

>  <TargetSites_Rat_Female>
esophagus; oral cavity

>  <ActivityOutcome_CPDBAS_Rat>
active

>  <ActivityOutcome_CPDBAS_SingleCellCall>
active

>  <ActivityOutcome_CPDBAS_MultiCellCall>
active

>  <ActivityOutcome_CPDBAS_MultiCellCall_Details>
multisite active; multisex active

>  <ChemicalPage_URL>
http://potency.berkeley.edu/chempages/N-NITROSOTHIOMORPHOLINE.html

$$$$



  9  9  0  0  0  0  0  0  0  0999 V2000
    2.6588    0.0000    0.0000 C   0  0  0  0  0  0  0  0  0  0  0  0
    1.9976   -1.1501    0.0000 C   0  0  0  0  0  0  0  0  0  0  0  0
    2.6588   -2.3049    0.0000 C   0  0  0  0  0  0  0  0  0  0  0  0
    1.9976   -3.4550    0.0000 C   0  0  0  0  0  0  0  0  0  0  0  0
    0.6659   -3.4550    0.0000 C   0  0  0  0  0  0  0  0  0  0  0  0
    0.0000   -2.3049    0.0000 C   0  0  0  0  0  0  0  0  0  0  0  0
    0.6659   -1.1501    0.0000 C   0  0  0  0  0  0  0  0  0  0  0  0
    3.9905   -2.3049    0.0000 N   0  0  0  0  0  0  0  0  0  0  0  0
    4.6563   -3.4550    0.0000 O   0  0  0  0  0  0  0  0  0  0  0  0
  1  2  1  0  0  0  0
  2  3  2  0  0  0  0
  2  7  1  0  0  0  0
  3  4  1  0  0  0  0
  3  8  1  0  0  0  0
  4  5  2  0  0  0  0
  5  6  1  0  0  0  0
  6  7  2  0  0  0  0
  8  9  2  0  0  0  0
M  END
>  <DSSTox_RID>
21065

>  <DSSTox_CID>
1065

>  <DSSTox_Generic_SID>
21065

>  <DSSTox_FileID>
1112_CPDBAS_v5d

>  <STRUCTURE_Formula>
C7H7NO

>  <STRUCTURE_MolecularWeight>
121.1384

>  <STRUCTURE_ChemicalType>
defined organic

>  <STRUCTURE_TestedForm_DefinedOrganic>
parent

>  <STRUCTURE_Shown>
tested chemical

>  <TestSubstance_ChemicalName>
o-Nitrosotoluene

>  <TestSubstance_CASRN>
611-23-4

>  <TestSubstance_Description>
single chemical compound

>  <STRUCTURE_ChemicalName_IUPAC>
1-methyl-2-nitrosobenzene

>  <STRUCTURE_SMILES>
CC1=C(C=CC=C1)N=O

>  <STRUCTURE_Parent_SMILES>
CC1=C(C=CC=C1)N=O

>  <STRUCTURE_InChI>
InChI=1/C7H7NO/c1-6-4-2-3-5-7(6)8-9/h2-5H,1H3

>  <STRUCTURE_InChIKey>
TWLBRQVYXPMCFK-UHFFFAOYAN

>  <StudyType>
Carcinogenicity

>  <Endpoint>
TD50; Tumor Target Sites

>  <Species>
rat

>  <TD50_Rat_mg>
50.7

>  <TD50_Rat_mmol>
0.419

>  <ActivityScore_CPDBAS_Rat>
30

>  <TargetSites_Rat_Male>
liver; spleen; subcutaneous tissue; urinary bladder

>  <ActivityOutcome_CPDBAS_Rat>
active

>  <ActivityOutcome_CPDBAS_SingleCellCall>
active

>  <ActivityOutcome_CPDBAS_MultiCellCall>
active

>  <ActivityOutcome_CPDBAS_MultiCellCall_Details>
multisite active

>  <ChemicalPage_URL>
http://potency.berkeley.edu/chempages/o-NITROSOTOLUENE.html

$$$$



 10 10  0  0  0  0  0  0  0  0999 V2000
    3.9896   -2.3044    0.0000 N   0  3  0  0  0  0  0  0  0  0  0  0
    4.6553   -3.4542    0.0000 O   0  0  0  0  0  0  0  0  0  0  0  0
    4.6553   -1.1499    0.0000 O   0  5  0  0  0  0  0  0  0  0  0  0
    2.6582   -2.3044    0.0000 C   0  0  0  0  0  0  0  0  0  0  0  0
    1.9971   -3.4542    0.0000 C   0  0  0  0  0  0  0  0  0  0  0  0
    0.6657   -3.4542    0.0000 C   0  0  0  0  0  0  0  0  0  0  0  0
    0.0000   -2.3044    0.0000 C   0  0  0  0  0  0  0  0  0  0  0  0
    0.6657   -1.1499    0.0000 C   0  0  0  0  0  0  0  0  0  0  0  0
    1.9971   -1.1499    0.0000 C   0  0  0  0  0  0  0  0  0  0  0  0
    2.6582    0.0000    0.0000 C   0  0  0  0  0  0  0  0  0  0  0  0
  1  2  2  0  0  0  0
  1  3  1  0  0  0  0
  1  4  1  0  0  0  0
  4  5  2  0  0  0  0
  4  9  1  0  0  0  0
  5  6  1  0  0  0  0
  6  7  2  0  0  0  0
  7  8  1  0  0  0  0
  8  9  2  0  0  0  0
  9 10  1  0  0  0  0
M  END
>  <DSSTox_RID>
40813

>  <DSSTox_CID>
5791

>  <DSSTox_Generic_SID>
25791

>  <DSSTox_FileID>
1113_CPDBAS_v5d

>  <STRUCTURE_Formula>
C7H7NO2

>  <STRUCTURE_MolecularWeight>
137.136

>  <STRUCTURE_ChemicalType>
defined organic

>  <STRUCTURE_TestedForm_DefinedOrganic>
parent

>  <STRUCTURE_Shown>
tested chemical

>  <TestSubstance_ChemicalName>
o-Nitrotoluene

>  <TestSubstance_CASRN>
88-72-2

>  <TestSubstance_Description>
single chemical compound

>  <STRUCTURE_ChemicalName_IUPAC>
1-methyl-2-nitrobenzene

>  <STRUCTURE_SMILES>
[N+](=O)([O-])c1ccccc1C

>  <STRUCTURE_Parent_SMILES>
[N+](=O)([O-])c1ccccc1C

>  <STRUCTURE_InChI>
InChI=1/C7H7NO2/c1-6-4-2-3-5-7(6)8(9)10/h2-5H,1H3

>  <STRUCTURE_InChIKey>
PLAZTCDQAHEYBI-UHFFFAOYAA

>  <StudyType>
Carcinogenicity

>  <Endpoint>
TD50; Tumor Target Sites

>  <Species>
rat; mouse

>  <ActivityOutcome_CPDBAS_Mutagenicity>
inactive

>  <TD50_Rat_mg>
4.66

>  <TD50_Rat_mmol>
0.034

>  <ActivityScore_CPDBAS_Rat>
41

>  <TD50_Rat_Note>
TD50 is harmonic mean of more than one positive test; greater than ten-fold variation among TD50 values for positive results

>  <TargetSites_Rat_Male>
liver; lung; mammary gland; peritoneal cavity; skin; subcutaneous tissue

>  <TargetSites_Rat_Female>
liver; mammary gland; subcutaneous tissue

>  <ActivityOutcome_CPDBAS_Rat>
active

>  <TD50_Mouse_mg>
128

>  <TD50_Mouse_mmol>
0.933

>  <ActivityScore_CPDBAS_Mouse>
29

>  <TD50_Mouse_Note>
TD50 is harmonic mean of more than one positive test

>  <TargetSites_Mouse_Male>
large intestine; vascular system

>  <TargetSites_Mouse_Female>
large intestine; liver; vascular system

>  <ActivityOutcome_CPDBAS_Mouse>
active

>  <ActivityOutcome_CPDBAS_SingleCellCall>
active

>  <ActivityOutcome_CPDBAS_MultiCellCall>
active

>  <ActivityOutcome_CPDBAS_MultiCellCall_Details>
multisite active; multisex active; multispecies active

>  <Note_CPDBAS>
Rat added v5a; Mouse added v5a; Mutagenicity_SAL_CPDB added v5a; chemical added v5a

>  <ChemicalPage_URL>
http://potency.berkeley.edu/chempages/o-NITROTOLUENE.html

$$$$



 10 10  0  0  0  0  0  0  0  0999 V2000
    3.3279   -2.4780    0.0000 C   0  0  0  0  0  0  0  0  0  0  0  0
    1.9991   -2.4780    0.0000 C   0  0  0  0  0  0  0  0  0  0  0  0
    3.9863   -1.3228    0.0000 C   0  0  0  0  0  0  0  0  0  0  0  0
    1.3288   -1.3228    0.0000 C   0  0  0  0  0  0  0  0  0  0  0  0
    1.9991   -0.1915    0.0000 C   0  0  0  0  0  0  0  0  0  0  0  0
    0.0000   -1.3228    0.0000 C   0  0  0  0  0  0  0  0  0  0  0  0
    3.3279   -0.1915    0.0000 C   0  0  0  0  0  0  0  0  0  0  0  0
    5.3150   -1.3228    0.0000 N   0  3  0  0  0  0  0  0  0  0  0  0
    5.9854   -2.4780    0.0000 O   0  0  0  0  0  0  0  0  0  0  0  0
    5.6323    0.0000    0.0000 O   0  5  0  0  0  0  0  0  0  0  0  0
  1  2  2  0  0  0  0
  1  3  1  0  0  0  0
  2  4  1  0  0  0  0
  3  7  2  0  0  0  0
  3  8  1  0  0  0  0
  4  5  2  0  0  0  0
  4  6  1  0  0  0  0
  5  7  1  0  0  0  0
  8  9  2  0  0  0  0
  8 10  1  0  0  0  0
M  END
>  <DSSTox_RID>
40814

>  <DSSTox_CID>
3792

>  <DSSTox_Generic_SID>
23792

>  <DSSTox_FileID>
1114_CPDBAS_v5d

>  <STRUCTURE_Formula>
C7H7NO2

>  <STRUCTURE_MolecularWeight>
137.136

>  <STRUCTURE_ChemicalType>
defined organic

>  <STRUCTURE_TestedForm_DefinedOrganic>
parent

>  <STRUCTURE_Shown>
tested chemical

>  <TestSubstance_ChemicalName>
p-Nitrotoluene

>  <TestSubstance_CASRN>
99-99-0

>  <TestSubstance_Description>
single chemical compound

>  <STRUCTURE_ChemicalName_IUPAC>
1-methyl-4-nitrobenzene

>  <STRUCTURE_SMILES>
O=N(=O)c1ccc(C)cc1

>  <STRUCTURE_Parent_SMILES>
O=N(=O)c1ccc(C)cc1

>  <STRUCTURE_InChI>
InChI=1/C7H7NO2/c1-6-2-4-7(5-3-6)8(9)10/h2-5H,1H3

>  <STRUCTURE_InChIKey>
ZPTVNYMJQHSSEA-UHFFFAOYAU

>  <StudyType>
Carcinogenicity

>  <Endpoint>
TD50; Tumor Target Sites

>  <Species>
rat; mouse

>  <ActivityOutcome_CPDBAS_Mutagenicity>
inactive

>  <TD50_Rat_mg>
257

>  <TD50_Rat_mmol>
1.87

>  <ActivityScore_CPDBAS_Rat>
23

>  <TargetSites_Rat_Male>
no positive results

>  <TargetSites_Rat_Female>
clitoral gland

>  <ActivityOutcome_CPDBAS_Rat>
active

>  <ActivityScore_CPDBAS_Mouse>
0

>  <TD50_Mouse_Note>
no positive results

>  <TargetSites_Mouse_Male>
no positive results

>  <TargetSites_Mouse_Female>
no positive results

>  <ActivityOutcome_CPDBAS_Mouse>
inactive

>  <ActivityOutcome_CPDBAS_SingleCellCall>
active

>  <Note_CPDBAS>
Rat added v5a; Mouse added v5a; Mutagenicity_SAL_CPDB added v5a; chemical added v5a

>  <ChemicalPage_URL>
http://potency.berkeley.edu/chempages/p-NITROTOLUENE.html

$$$$



 24 27  0  0  1  0  0  0  0  0999 V2000
    5.5247   -2.5376    0.0000 C   0  0  2  0  0  0  0  0  0  0  0  0
    4.4198   -3.1777    0.0000 C   0  0  1  0  0  0  0  0  0  0  0  0
    3.3377   -2.5452    0.0000 C   0  0  2  0  0  0  0  0  0  0  0  0
    5.5247   -1.2802    0.0000 C   0  0  2  0  0  0  0  0  0  0  0  0
    6.2944   -1.8822    0.0000 O   0  0  0  0  0  0  0  0  0  0  0  0
    3.3377   -1.2650    0.0000 C   0  0  2  0  0  0  0  0  0  0  0  0
    2.2251   -3.1777    0.0000 C   0  0  1  0  0  0  0  0  0  0  0  0
    7.0259   -3.1777    0.0000 C   0  0  1  0  0  0  0  0  0  0  0  0
    4.4198   -0.6477    0.0000 O   0  0  0  0  0  0  0  0  0  0  0  0
    7.0259   -1.2802    0.0000 C   0  0  1  0  0  0  0  0  0  0  0  0
    4.7779   -1.8975    0.0000 C   0  0  0  0  0  0  0  0  0  0  0  0
    1.1354   -2.5376    0.0000 C   0  0  0  0  0  0  0  0  0  0  0  0
    1.1354   -1.2802    0.0000 C   0  0  0  0  0  0  0  0  0  0  0  0
    2.2251   -0.6477    0.0000 C   0  0  0  0  0  0  0  0  0  0  0  0
    0.0152   -3.1624    0.0000 O   0  0  0  0  0  0  0  0  0  0  0  0
    3.3377   -4.7170    0.0000 C   0  0  0  0  0  0  0  0  0  0  0  0
    4.4198   -4.4426    0.0000 C   0  0  0  0  0  0  0  0  0  0  0  0
    2.2251   -4.4426    0.0000 O   0  0  0  0  0  0  0  0  0  0  0  0
    7.6203   -3.6044    0.0000 O   0  0  0  0  0  0  0  0  0  0  0  0
    7.5365   -0.7773    0.0000 O   0  0  0  0  0  0  0  0  0  0  0  0
    0.0000   -0.6630    0.0000 C   0  0  0  0  0  0  0  0  0  0  0  0
    4.4198   -5.3418    0.0000 O   0  0  0  0  0  0  0  0  0  0  0  0
    3.3377    0.0000    0.0000 H   0  0  0  0  0  0  0  0  0  0  0  0
    5.5247   -0.0457    0.0000 H   0  0  0  0  0  0  0  0  0  0  0  0
  1  2  1  0  0  0  0
  1  4  1  0  0  0  0
  1  5  1  6  0  0  0
  1 11  1  1  0  0  0
  2  3  1  0  0  0  0
  2  8  1  0  0  0  0
  2 17  1  1  0  0  0
  3  7  1  0  0  0  0
  3 16  1  6  0  0  0
  3  6  1  0  0  0  0
  4  9  1  0  0  0  0
  4 10  1  0  0  0  0
  4 24  1  1  0  0  0
  5 11  1  0  0  0  0
  6  9  1  0  0  0  0
  6 14  1  0  0  0  0
  6 23  1  6  0  0  0
  7 12  1  0  0  0  0
  7 18  1  6  0  0  0
  8 19  1  1  0  0  0
  8 10  1  0  0  0  0
 10 20  1  6  0  0  0
 12 15  2  0  0  0  0
 12 13  1  0  0  0  0
 13 14  2  0  0  0  0
 13 21  1  0  0  0  0
 16 22  1  0  0  0  0
M  END
>  <DSSTox_RID>
21067

>  <DSSTox_CID>
1067

>  <DSSTox_Generic_SID>
21067

>  <DSSTox_FileID>
1116_CPDBAS_v5d

>  <STRUCTURE_Formula>
C15H20O7

>  <STRUCTURE_MolecularWeight>
312.3188

>  <STRUCTURE_ChemicalType>
defined organic

>  <STRUCTURE_TestedForm_DefinedOrganic>
parent

>  <STRUCTURE_Shown>
tested chemical

>  <TestSubstance_ChemicalName>
Nivalenol

>  <TestSubstance_CASRN>
23282-20-4

>  <TestSubstance_Description>
single chemical compound

>  <ChemicalNote>
stereochem, tautomers

>  <STRUCTURE_ChemicalName_IUPAC>
(3alpha,4beta,7alpha)-3,4,7,15-tetrahydroxy-12,13-epoxytrichothec-9-en-8-one

>  <STRUCTURE_SMILES>
O=C2[C@@H](O)[C@]1(CO)[C@]([C@@H]4O)(C)[C@]3(OC3)[C@]([C@@H]4O)([H])O[C@@]([H])1C=C2C

>  <STRUCTURE_Parent_SMILES>
O=C2[C@@H](O)[C@]1(CO)[C@]([C@@H]4O)(C)[C@]3(OC3)[C@]([C@@H]4O)([H])O[C@@]([H])1C=C2C

>  <STRUCTURE_InChI>
InChI=1/C15H20O7/c1-6-3-7-14(4-16,11(20)8(6)17)13(2)10(19)9(18)12(22-7)15(13)5-21-15/h3,7,9-12,16,18-20H,4-5H2,1-2H3/t7-,9-,10-,11-,12-,13-,14-,15+/m1/s1

>  <STRUCTURE_InChIKey>
UKOTXHQERFPCBU-XBXCNEFVBD

>  <StudyType>
Carcinogenicity

>  <Endpoint>
TD50; Tumor Target Sites

>  <Species>
mouse

>  <ActivityScore_CPDBAS_Mouse>
0

>  <TD50_Mouse_Note>
no positive results

>  <TargetSites_Mouse_Female>
no positive results

>  <ActivityOutcome_CPDBAS_Mouse>
inactive

>  <ActivityOutcome_CPDBAS_SingleCellCall>
inactive

>  <ChemicalPage_URL>
http://potency.berkeley.edu/chempages/NIVALENOL.html

$$$$



 25 28  0  0  1  0  0  0  0  0999 V2000
    3.4957   -3.7237    0.0000 C   0  0  0  0  0  0  0  0  0  0  0  0
    6.9263   -1.7370    0.0000 C   0  0  1  0  0  0  0  0  0  0  0  0
    6.9263   -3.0723    0.0000 C   0  0  2  0  0  0  0  0  0  0  0  0
    4.6356   -3.0723    0.0000 C   0  0  2  0  0  0  0  0  0  0  0  0
    3.4957   -5.0590    0.0000 C   0  0  0  0  0  0  0  0  0  0  0  0
    5.7755   -3.7237    0.0000 C   0  0  1  0  0  0  0  0  0  0  0  0
    8.1965   -1.3787    0.0000 C   0  0  2  0  0  0  0  0  0  0  0  0
    9.5209   -1.4222    0.0000 C   0  0  0  0  0  0  0  0  0  0  0  0
    5.7755   -1.0639    0.0000 C   0  0  0  0  0  0  0  0  0  0  0  0
    4.6356   -1.7370    0.0000 C   0  0  0  0  0  0  0  0  0  0  0  0
    2.3232   -3.0723    0.0000 C   0  0  0  0  0  0  0  0  0  0  0  0
    5.7755   -5.0590    0.0000 C   0  0  0  0  0  0  0  0  0  0  0  0
    8.1965   -3.4849    0.0000 C   0  0  0  0  0  0  0  0  0  0  0  0
   10.8562   -1.4222    0.0000 C   0  0  0  0  0  0  0  0  0  0  0  0
    2.3232   -5.7321    0.0000 C   0  0  0  0  0  0  0  0  0  0  0  0
    4.6356   -5.7321    0.0000 C   0  0  0  0  0  0  0  0  0  0  0  0
    8.9564   -2.4101    0.0000 C   0  0  0  0  0  0  0  0  0  0  0  0
    1.1616   -5.0590    0.0000 C   0  0  0  0  0  0  0  0  0  0  0  0
    0.0000   -5.7538    0.0000 O   0  0  0  0  0  0  0  0  0  0  0  0
    1.1616   -3.7237    0.0000 C   0  0  0  0  0  0  0  0  0  0  0  0
    8.1965    0.0000    0.0000 O   0  0  0  0  0  0  0  0  0  0  0  0
    6.9263   -0.4125    0.0000 C   0  0  0  0  0  0  0  0  0  0  0  0
    4.6356   -4.3968    0.0000 H   0  0  0  0  0  0  0  0  0  0  0  0
    5.7755   -2.3992    0.0000 H   0  0  0  0  0  0  0  0  0  0  0  0
    6.9263   -4.3968    0.0000 H   0  0  0  0  0  0  0  0  0  0  0  0
  1  4  1  0  0  0  0
  1  5  2  0  0  0  0
  1 11  1  0  0  0  0
  2  9  1  0  0  0  0
  2  7  1  0  0  0  0
  2 22  1  1  0  0  0
  2  3  1  0  0  0  0
  3  6  1  0  0  0  0
  3 13  1  0  0  0  0
  3 25  1  6  0  0  0
  4  6  1  0  0  0  0
  4 10  1  0  0  0  0
  4 23  1  6  0  0  0
  5 15  1  0  0  0  0
  5 16  1  0  0  0  0
  6 12  1  0  0  0  0
  6 24  1  1  0  0  0
  7  8  1  6  0  0  0
  7 21  1  1  0  0  0
  7 17  1  0  0  0  0
  8 14  3  0  0  0  0
  9 10  1  0  0  0  0
 11 20  1  0  0  0  0
 12 16  1  0  0  0  0
 13 17  1  0  0  0  0
 15 18  1  0  0  0  0
 18 20  1  0  0  0  0
 18 19  2  0  0  0  0
M  END
>  <DSSTox_RID>
21069

>  <DSSTox_CID>
563

>  <DSSTox_Generic_SID>
21069

>  <DSSTox_FileID>
1118_CPDBAS_v5d

>  <STRUCTURE_Formula>
C20H26O2

>  <STRUCTURE_MolecularWeight>
298.4192

>  <STRUCTURE_ChemicalType>
defined organic

>  <STRUCTURE_TestedForm_DefinedOrganic>
parent

>  <STRUCTURE_Shown>
tested chemical

>  <TestSubstance_ChemicalName>
Norethynodrel

>  <TestSubstance_CASRN>
68-23-5

>  <TestSubstance_Description>
single chemical compound

>  <ChemicalNote>
stereochem

>  <STRUCTURE_ChemicalName_IUPAC>
(17beta)-17-ethynyl-17-hydroxyestr-5(10)-en-3-one

>  <STRUCTURE_SMILES>
O=C2CC3=C(CC2)[C@]1([H])[C@](CC3)([H])[C@@](CC4)([H])[C@]([C@]4(O)C#C)(C)CC1

>  <STRUCTURE_Parent_SMILES>
O=C4CC\C3=C(\CC[C@@H]2[C@@H]3CC[C@@]1(C)[C@H]2CC[C@@]1(O)C#C)C4

>  <STRUCTURE_InChI>
InChI=1/C20H26O2/c1-3-20(22)11-9-18-17-6-4-13-12-14(21)5-7-15(13)16(17)8-10-19(18,20)2/h1,16-18,22H,4-12H2,2H3/t16-,17-,18+,19+,20+/m1/s1

>  <STRUCTURE_InChIKey>
ICTXHFFSOAJUMG-SLHNCBLABT

>  <StudyType>
Carcinogenicity

>  <Endpoint>
TD50; Tumor Target Sites

>  <Species>
mouse

>  <ActivityOutcome_CPDBAS_Mutagenicity>
inactive

>  <ActivityScore_CPDBAS_Mouse>
0

>  <TD50_Mouse_Note>
no positive results

>  <TargetSites_Mouse_Male>
no positive results

>  <TargetSites_Mouse_Female>
no positive results

>  <ActivityOutcome_CPDBAS_Mouse>
inactive

>  <ActivityOutcome_CPDBAS_SingleCellCall>
inactive

>  <ActivityOutcome_CPDBAS_MultiCellCall>
inactive

>  <ActivityOutcome_CPDBAS_MultiCellCall_Details>
multisex inactive

>  <ChemicalPage_URL>
http://potency.berkeley.edu/chempages/NORETHYNODREL.html

$$$$



 13 15  0  0  0  0  0  0  0  0999 V2000
    3.7329   -2.1413    0.0000 C   0  0  0  0  0  0  0  0  0  0  0  0
    2.4289   -1.8664    0.0000 C   0  0  0  0  0  0  0  0  0  0  0  0
    2.2883   -0.5433    0.0000 C   0  0  0  0  0  0  0  0  0  0  0  0
    1.0738    0.0000    0.0000 C   0  0  0  0  0  0  0  0  0  0  0  0
    0.0000   -0.7798    0.0000 N   0  0  0  0  0  0  0  0  0  0  0  0
    0.1406   -2.1029    0.0000 C   0  0  0  0  0  0  0  0  0  0  0  0
    1.3551   -2.6462    0.0000 C   0  0  0  0  0  0  0  0  0  0  0  0
    3.5091    0.0000    0.0000 N   0  0  0  0  0  0  0  0  0  0  0  0
    4.3976   -0.9907    0.0000 C   0  0  0  0  0  0  0  0  0  0  0  0
    5.7271   -0.9907    0.0000 C   0  0  0  0  0  0  0  0  0  0  0  0
    6.3919   -2.1413    0.0000 C   0  0  0  0  0  0  0  0  0  0  0  0
    5.7271   -3.2918    0.0000 C   0  0  0  0  0  0  0  0  0  0  0  0
    4.3976   -3.2918    0.0000 C   0  0  0  0  0  0  0  0  0  0  0  0
  1  2  1  0  0  0  0
  1  9  2  0  0  0  0
  1 13  1  0  0  0  0
  2  3  1  0  0  0  0
  2  7  2  0  0  0  0
  3  4  2  0  0  0  0
  3  8  1  0  0  0  0
  4  5  1  0  0  0  0
  5  6  2  0  0  0  0
  6  7  1  0  0  0  0
  8  9  1  0  0  0  0
  9 10  1  0  0  0  0
 10 11  2  0  0  0  0
 11 12  1  0  0  0  0
 12 13  2  0  0  0  0
M  END
>  <DSSTox_RID>
21070

>  <DSSTox_CID>
1070

>  <DSSTox_Generic_SID>
21070

>  <DSSTox_FileID>
1119_CPDBAS_v5d

>  <STRUCTURE_Formula>
C11H8N2

>  <STRUCTURE_MolecularWeight>
168.1976

>  <STRUCTURE_ChemicalType>
defined organic

>  <STRUCTURE_TestedForm_DefinedOrganic>
parent

>  <STRUCTURE_Shown>
tested chemical

>  <TestSubstance_ChemicalName>
Norharman

>  <TestSubstance_CASRN>
244-63-3

>  <TestSubstance_Description>
single chemical compound

>  <STRUCTURE_ChemicalName_IUPAC>
9H-beta-carboline

>  <STRUCTURE_SMILES>
C13=C(C=CC=C3)NC2=CN=CC=C12

>  <STRUCTURE_Parent_SMILES>
C13=C(C=CC=C3)NC2=CN=CC=C12

>  <STRUCTURE_InChI>
InChI=1/C11H8N2/c1-2-4-10-8(3-1)9-5-6-12-7-11(9)13-10/h1-7,13H

>  <STRUCTURE_InChIKey>
AIFRHYZBTHREPW-UHFFFAOYAG

>  <StudyType>
Carcinogenicity

>  <Endpoint>
TD50; Tumor Target Sites

>  <Species>
rat

>  <ActivityOutcome_CPDBAS_Mutagenicity>
active

>  <ActivityScore_CPDBAS_Rat>
0

>  <TD50_Rat_Note>
no positive results

>  <TargetSites_Rat_Male>
no positive results

>  <ActivityOutcome_CPDBAS_Rat>
inactive

>  <ActivityOutcome_CPDBAS_SingleCellCall>
inactive

>  <ChemicalPage_URL>
http://potency.berkeley.edu/chempages/NORHARMAN.html

$$$$



 28 30  0  0  1  0  0  0  0  0999 V2000
   10.3725   -2.6589    0.0000 C   0  0  0  0  0  0  0  0  0  0  0  0
    8.0598   -2.6589    0.0000 C   0  0  0  0  0  0  0  0  0  0  0  0
   11.5220   -1.9942    0.0000 C   0  0  0  0  0  0  0  0  0  0  0  0
    9.2093   -1.9942    0.0000 C   0  0  0  0  0  0  0  0  0  0  0  0
   10.3725   -3.9745    0.0000 C   0  0  0  0  0  0  0  0  0  0  0  0
    6.9243   -1.9942    0.0000 C   0  0  0  0  0  0  0  0  0  0  0  0
    8.0598   -3.9745    0.0000 C   0  0  0  0  0  0  0  0  0  0  0  0
   12.6714   -2.6589    0.0000 O   0  0  0  0  0  0  0  0  0  0  0  0
    9.2093   -4.6393    0.0000 C   0  0  0  0  0  0  0  0  0  0  0  0
    5.7610   -2.6589    0.0000 N   0  0  0  0  0  0  0  0  0  0  0  0
    4.6116   -1.9942    0.0000 C   0  0  2  0  0  0  0  0  0  0  0  0
    4.6116   -0.6647    0.0000 C   0  0  0  0  0  0  0  0  0  0  0  0
   11.5220   -4.6393    0.0000 C   0  0  0  0  0  0  0  0  0  0  0  0
   11.5220   -0.6647    0.0000 O   0  0  0  0  0  0  0  0  0  0  0  0
    6.9243   -0.6647    0.0000 O   0  0  0  0  0  0  0  0  0  0  0  0
   12.6714   -3.9745    0.0000 C   0  0  1  0  0  0  0  0  0  0  0  0
    3.4483   -2.6589    0.0000 C   0  0  0  0  0  0  0  0  0  0  0  0
    3.4621    0.0000    0.0000 O   0  0  0  0  0  0  0  0  0  0  0  0
    9.2093   -0.6647    0.0000 O   0  0  0  0  0  0  0  0  0  0  0  0
    9.2093   -5.9687    0.0000 Cl  0  0  0  0  0  0  0  0  0  0  0  0
    5.7748    0.0000    0.0000 O   0  0  0  0  0  0  0  0  0  0  0  0
    2.3127   -1.9942    0.0000 C   0  0  0  0  0  0  0  0  0  0  0  0
   13.8485   -4.6531    0.0000 C   0  0  0  0  0  0  0  0  0  0  0  0
    1.1633   -2.6589    0.0000 C   0  0  0  0  0  0  0  0  0  0  0  0
    2.3127   -0.6647    0.0000 C   0  0  0  0  0  0  0  0  0  0  0  0
    1.1633    0.0000    0.0000 C   0  0  0  0  0  0  0  0  0  0  0  0
    0.0000   -1.9942    0.0000 C   0  0  0  0  0  0  0  0  0  0  0  0
    0.0000   -0.6647    0.0000 C   0  0  0  0  0  0  0  0  0  0  0  0
  1  3  1  0  0  0  0
  1  4  1  0  0  0  0
  1  5  2  0  0  0  0
  2  4  2  0  0  0  0
  2  6  1  0  0  0  0
  2  7  1  0  0  0  0
  3  8  1  0  0  0  0
  3 14  2  0  0  0  0
  4 19  1  0  0  0  0
  5  9  1  0  0  0  0
  5 13  1  0  0  0  0
  6 10  1  0  0  0  0
  6 15  2  0  0  0  0
  7  9  2  0  0  0  0
  8 16  1  0  0  0  0
  9 20  1  0  0  0  0
 10 11  1  0  0  0  0
 11 12  1  1  0  0  0
 11 17  1  0  0  0  0
 12 18  2  0  0  0  0
 12 21  1  0  0  0  0
 13 16  1  0  0  0  0
 16 23  1  6  0  0  0
 17 22  1  0  0  0  0
 22 24  2  0  0  0  0
 22 25  1  0  0  0  0
 24 27  1  0  0  0  0
 25 26  2  0  0  0  0
 26 28  1  0  0  0  0
 27 28  2  0  0  0  0
M  END
>  <DSSTox_RID>
21073

>  <DSSTox_CID>
1073

>  <DSSTox_Generic_SID>
21073

>  <DSSTox_FileID>
1122_CPDBAS_v5d

>  <STRUCTURE_Formula>
C20H18ClNO6

>  <STRUCTURE_MolecularWeight>
403.813

>  <STRUCTURE_ChemicalType>
defined organic

>  <STRUCTURE_TestedForm_DefinedOrganic>
parent

>  <STRUCTURE_Shown>
tested chemical

>  <TestSubstance_ChemicalName>
Ochratoxin A

>  <TestSubstance_CASRN>
303-47-9

>  <TestSubstance_Description>
single chemical compound

>  <ChemicalNote>
stereochem

>  <STRUCTURE_ChemicalName_IUPAC>
N-{[(3R)-5-chloro-8-hydroxy-3-methyl-1-oxo-3,4-dihydro-1H-isochromen-7-yl]carbonyl}-L-phenylalanine

>  <STRUCTURE_SMILES>
O=C(O[C@H](C)C2)C1=C2C(Cl)=CC(C(N[C@@H](CC3=CC=CC=C3)[C@@](O)=O)=O)=C1O

>  <STRUCTURE_Parent_SMILES>
O=C(O[C@H](C)C2)C1=C2C(Cl)=CC(C(N[C@@H](CC3=CC=CC=C3)[C@@](O)=O)=O)=C1O

>  <STRUCTURE_InChI>
InChI=1/C20H18ClNO6/c1-10-7-12-14(21)9-13(17(23)16(12)20(27)28-10)18(24)22-15(19(25)26)8-11-5-3-2-4-6-11/h2-6,9-10,15,23H,7-8H2,1H3,(H,22,24)(H,25,26)/t10-,15+/m1/s1/f/h22,25H

>  <STRUCTURE_InChIKey>
RWQKHEORZBHNRI-RKENYTOSDR

>  <StudyType>
Carcinogenicity

>  <Endpoint>
TD50; Tumor Target Sites

>  <Species>
rat; mouse

>  <ActivityOutcome_CPDBAS_Mutagenicity>
inactive

>  <TD50_Rat_mg>
0.136

>  <TD50_Rat_mmol>
0.000337

>  <ActivityScore_CPDBAS_Rat>
62

>  <TD50_Rat_Note>
TD50 is harmonic mean of more than one positive test

>  <TargetSites_Rat_Male>
kidney; urinary bladder

>  <TargetSites_Rat_Female>
kidney; mammary gland

>  <ActivityOutcome_CPDBAS_Rat>
active

>  <TD50_Mouse_mg>
6.41

>  <TD50_Mouse_mmol>
0.0159

>  <ActivityScore_CPDBAS_Mouse>
49

>  <TD50_Mouse_Note>
TD50 is harmonic mean of more than one positive test

>  <TargetSites_Mouse_Male>
kidney

>  <TargetSites_Mouse_Female>
liver

>  <ActivityOutcome_CPDBAS_Mouse>
active

>  <ActivityOutcome_CPDBAS_SingleCellCall>
active

>  <ActivityOutcome_CPDBAS_MultiCellCall>
active

>  <ActivityOutcome_CPDBAS_MultiCellCall_Details>
multisite active; multisex active; multispecies active

>  <Note_CPDBAS>
Rat modified v5a

>  <NTP_TechnicalReport>
TR 358; additional results included in CPDB

>  <ChemicalPage_URL>
http://potency.berkeley.edu/chempages/OCHRATOXIN%20A.html

$$$$



 16 16  0  0  0  0  0  0  0  0999 V2000
    3.3290   -4.6094    0.0000 Cl  0  0  0  0  0  0  0  0  0  0  0  0
    3.9875   -3.4607    0.0000 C   0  0  0  0  0  0  0  0  0  0  0  0
    3.3290   -2.3047    0.0000 C   0  0  0  0  0  0  0  0  0  0  0  0
    3.9875   -1.1560    0.0000 C   0  0  0  0  0  0  0  0  0  0  0  0
    5.3191   -1.1560    0.0000 C   0  0  0  0  0  0  0  0  0  0  0  0
    5.9850   -2.3047    0.0000 C   0  0  0  0  0  0  0  0  0  0  0  0
    5.3191   -3.4607    0.0000 C   0  0  0  0  0  0  0  0  0  0  0  0
    5.9850   -4.6094    0.0000 Cl  0  0  0  0  0  0  0  0  0  0  0  0
    7.3166   -2.3047    0.0000 Cl  0  0  0  0  0  0  0  0  0  0  0  0
    5.9850    0.0000    0.0000 Cl  0  0  0  0  0  0  0  0  0  0  0  0
    3.3290    0.0000    0.0000 Cl  0  0  0  0  0  0  0  0  0  0  0  0
    1.9974   -2.3047    0.0000 C   0  0  0  0  0  0  0  0  0  0  0  0
    1.3316   -3.4607    0.0000 C   0  0  0  0  0  0  0  0  0  0  0  0
    0.0000   -3.4607    0.0000 Cl  0  0  0  0  0  0  0  0  0  0  0  0
    1.9974   -4.6094    0.0000 Cl  0  0  0  0  0  0  0  0  0  0  0  0
    1.3316   -1.1560    0.0000 Cl  0  0  0  0  0  0  0  0  0  0  0  0
  1  2  1  0  0  0  0
  2  3  2  0  0  0  0
  2  7  1  0  0  0  0
  3  4  1  0  0  0  0
  3 12  1  0  0  0  0
  4  5  2  0  0  0  0
  4 11  1  0  0  0  0
  5  6  1  0  0  0  0
  5 10  1  0  0  0  0
  6  7  2  0  0  0  0
  6  9  1  0  0  0  0
  7  8  1  0  0  0  0
 12 13  2  0  0  0  0
 12 16  1  0  0  0  0
 13 14  1  0  0  0  0
 13 15  1  0  0  0  0
M  END
>  <DSSTox_RID>
21074

>  <DSSTox_CID>
1074

>  <DSSTox_Generic_SID>
21074

>  <DSSTox_FileID>
1123_CPDBAS_v5d

>  <STRUCTURE_Formula>
C8Cl8

>  <STRUCTURE_MolecularWeight>
379.712

>  <STRUCTURE_ChemicalType>
defined organic

>  <STRUCTURE_TestedForm_DefinedOrganic>
parent

>  <STRUCTURE_Shown>
tested chemical

>  <TestSubstance_ChemicalName>
Octachlorostyrene

>  <TestSubstance_CASRN>
29082-74-4

>  <TestSubstance_Description>
single chemical compound

>  <STRUCTURE_ChemicalName_IUPAC>
1,2,3,4,5-pentachloro-6-(trichloroethenyl)benzene

>  <STRUCTURE_SMILES>
ClC1=C(C(=C(C(=C1Cl)Cl)Cl)Cl)C(=C(Cl)Cl)Cl

>  <STRUCTURE_Parent_SMILES>
ClC1=C(C(=C(C(=C1Cl)Cl)Cl)Cl)C(=C(Cl)Cl)Cl

>  <STRUCTURE_InChI>
InChI=1/C8Cl8/c9-2-1(4(11)8(15)16)3(10)6(13)7(14)5(2)12

>  <STRUCTURE_InChIKey>
RUYUCCQRWINUHE-UHFFFAOYAL

>  <StudyType>
Carcinogenicity

>  <Endpoint>
TD50; Tumor Target Sites

>  <Species>
rat; mouse

>  <ActivityScore_CPDBAS_Rat>
0

>  <TD50_Rat_Note>
no positive results

>  <TargetSites_Rat_Male>
no positive results

>  <TargetSites_Rat_Female>
no positive results

>  <ActivityOutcome_CPDBAS_Rat>
inactive

>  <ActivityScore_CPDBAS_Mouse>
0

>  <TD50_Mouse_Note>
no positive results

>  <TargetSites_Mouse_Male>
no positive results

>  <ActivityOutcome_CPDBAS_Mouse>
inactive

>  <ActivityOutcome_CPDBAS_SingleCellCall>
inactive

>  <ActivityOutcome_CPDBAS_MultiCellCall>
inactive

>  <ActivityOutcome_CPDBAS_MultiCellCall_Details>
multisex inactive; multispecies inactive

>  <ChemicalPage_URL>
http://potency.berkeley.edu/chempages/OCTACHLOROSTYRENE.html

$$$$



 13 14  0  0  0  0  0  0  0  0999 V2000
    2.4281    0.0000    0.0000 C   0  0  0  0  0  0  0  0  0  0  0  0
    2.3556   -1.3264    0.0000 C   0  0  0  0  0  0  0  0  0  0  0  0
    3.3921   -2.1672    0.0000 C   0  0  0  0  0  0  0  0  0  0  0  0
    2.9137   -3.4066    0.0000 S   0  0  0  0  0  0  0  0  0  0  0  0
    1.5873   -3.3341    0.0000 S   0  0  0  0  0  0  0  0  0  0  0  0
    1.2394   -2.0512    0.0000 C   0  0  0  0  0  0  0  0  0  0  0  0
    0.0000   -1.5728    0.0000 S   0  0  0  0  0  0  0  0  0  0  0  0
    4.6750   -1.8193    0.0000 C   0  0  0  0  0  0  0  0  0  0  0  0
    5.0229   -0.5364    0.0000 C   0  0  0  0  0  0  0  0  0  0  0  0
    6.3059   -0.1885    0.0000 N   0  0  0  0  0  0  0  0  0  0  0  0
    7.2481   -1.1307    0.0000 C   0  0  0  0  0  0  0  0  0  0  0  0
    6.9002   -2.4136    0.0000 C   0  0  0  0  0  0  0  0  0  0  0  0
    5.6173   -2.7615    0.0000 N   0  0  0  0  0  0  0  0  0  0  0  0
  1  2  1  0  0  0  0
  2  3  2  0  0  0  0
  2  6  1  0  0  0  0
  3  4  1  0  0  0  0
  3  8  1  0  0  0  0
  4  5  1  0  0  0  0
  5  6  1  0  0  0  0
  6  7  2  0  0  0  0
  8  9  2  0  0  0  0
  8 13  1  0  0  0  0
  9 10  1  0  0  0  0
 10 11  2  0  0  0  0
 11 12  1  0  0  0  0
 12 13  2  0  0  0  0
M  END
>  <DSSTox_RID>
21079

>  <DSSTox_CID>
1079

>  <DSSTox_Generic_SID>
21079

>  <DSSTox_FileID>
1128_CPDBAS_v5d

>  <STRUCTURE_Formula>
C8H6N2S3

>  <STRUCTURE_MolecularWeight>
226.3288

>  <STRUCTURE_ChemicalType>
defined organic

>  <STRUCTURE_TestedForm_DefinedOrganic>
parent

>  <STRUCTURE_Shown>
tested chemical

>  <TestSubstance_ChemicalName>
Oltipraz

>  <TestSubstance_CASRN>
64224-21-1

>  <TestSubstance_Description>
single chemical compound

>  <STRUCTURE_ChemicalName_IUPAC>
4-methyl-5-pyrazin-2-yl-3H-1,2-dithiole-3-thione

>  <STRUCTURE_SMILES>
CC1=C(SSC1=S)C2=CN=CC=N2

>  <STRUCTURE_Parent_SMILES>
CC1=C(SSC1=S)C2=CN=CC=N2

>  <STRUCTURE_InChI>
InChI=1/C8H6N2S3/c1-5-7(12-13-8(5)11)6-4-9-2-3-10-6/h2-4H,1H3

>  <STRUCTURE_InChIKey>
CKNAQFVBEHDJQV-UHFFFAOYAR

>  <StudyType>
Carcinogenicity

>  <Endpoint>
TD50; Tumor Target Sites

>  <Species>
rat

>  <ActivityScore_CPDBAS_Rat>
0

>  <TD50_Rat_Note>
no positive results

>  <TargetSites_Rat_Male>
no positive results

>  <TargetSites_Rat_Female>
no positive results

>  <ActivityOutcome_CPDBAS_Rat>
inactive

>  <ActivityOutcome_CPDBAS_SingleCellCall>
inactive

>  <ActivityOutcome_CPDBAS_MultiCellCall>
inactive

>  <ActivityOutcome_CPDBAS_MultiCellCall_Details>
multisex inactive

>  <Note_CPDBAS>
TargetSites_Rat modified v3a

>  <ChemicalPage_URL>
http://potency.berkeley.edu/chempages/OLTIPRAZ.html

$$$$



 24 26  0  0  0  0  0  0  0  0999 V2000
    8.6485   -4.6107    0.0000 O   0  0  0  0  0  0  0  0  0  0  0  0
    7.9919   -3.4650    0.0000 S   0  0  3  0  0  0  0  0  0  0  0  0
    6.6506   -3.4650    0.0000 C   0  0  0  0  0  0  0  0  0  0  0  0
    5.8682   -2.3892    0.0000 N   0  0  0  0  0  0  0  0  0  0  0  0
    4.6107   -2.7944    0.0000 C   0  0  0  0  0  0  0  0  0  0  0  0
    4.6107   -4.1217    0.0000 C   0  0  0  0  0  0  0  0  0  0  0  0
    3.4510   -4.7923    0.0000 C   0  0  0  0  0  0  0  0  0  0  0  0
    2.3053   -4.1217    0.0000 C   0  0  0  0  0  0  0  0  0  0  0  0
    2.3053   -2.7944    0.0000 C   0  0  0  0  0  0  0  0  0  0  0  0
    3.4510   -2.1377    0.0000 C   0  0  0  0  0  0  0  0  0  0  0  0
    1.1457   -2.1377    0.0000 O   0  0  0  0  0  0  0  0  0  0  0  0
    0.0000   -2.7944    0.0000 C   0  0  0  0  0  0  0  0  0  0  0  0
    5.8682   -4.5408    0.0000 N   0  0  0  0  0  0  0  0  0  0  0  0
    8.6485   -2.3053    0.0000 C   0  0  0  0  0  0  0  0  0  0  0  0
    9.9759   -2.3053    0.0000 C   0  0  0  0  0  0  0  0  0  0  0  0
   10.6465   -1.1597    0.0000 C   0  0  0  0  0  0  0  0  0  0  0  0
   11.9738   -1.1597    0.0000 C   0  0  0  0  0  0  0  0  0  0  0  0
   12.6445   -2.3053    0.0000 C   0  0  0  0  0  0  0  0  0  0  0  0
   11.9738   -3.4650    0.0000 C   0  0  0  0  0  0  0  0  0  0  0  0
   10.6465   -3.4650    0.0000 N   0  0  0  0  0  0  0  0  0  0  0  0
   13.9718   -2.3053    0.0000 C   0  0  0  0  0  0  0  0  0  0  0  0
   12.6445    0.0000    0.0000 O   0  0  0  0  0  0  0  0  0  0  0  0
   13.9718    0.0000    0.0000 C   0  0  0  0  0  0  0  0  0  0  0  0
    9.9759    0.0000    0.0000 C   0  0  0  0  0  0  0  0  0  0  0  0
  1  2  2  0  0  0  0
  2  3  1  0  0  0  0
  2 14  1  0  0  0  0
  3  4  2  0  0  0  0
  3 13  1  0  0  0  0
  4  5  1  0  0  0  0
  5  6  2  0  0  0  0
  5 10  1  0  0  0  0
  6  7  1  0  0  0  0
  6 13  1  0  0  0  0
  7  8  2  0  0  0  0
  8  9  1  0  0  0  0
  9 10  2  0  0  0  0
  9 11  1  0  0  0  0
 11 12  1  0  0  0  0
 14 15  1  0  0  0  0
 15 16  2  0  0  0  0
 15 20  1  0  0  0  0
 16 17  1  0  0  0  0
 16 24  1  0  0  0  0
 17 18  2  0  0  0  0
 17 22  1  0  0  0  0
 18 19  1  0  0  0  0
 18 21  1  0  0  0  0
 19 20  2  0  0  0  0
 22 23  1  0  0  0  0
M  END
>  <DSSTox_RID>
21080

>  <DSSTox_CID>
1080

>  <DSSTox_Generic_SID>
21080

>  <DSSTox_FileID>
1129_CPDBAS_v5d

>  <STRUCTURE_Formula>
C17H19N3O3S

>  <STRUCTURE_MolecularWeight>
345.4154

>  <STRUCTURE_ChemicalType>
defined organic

>  <STRUCTURE_TestedForm_DefinedOrganic>
parent

>  <STRUCTURE_Shown>
tested chemical

>  <TestSubstance_ChemicalName>
Omeprazole

>  <TestSubstance_CASRN>
73590-58-6

>  <TestSubstance_Description>
single chemical compound

>  <STRUCTURE_ChemicalName_IUPAC>
2-({[3,5-dimethyl-4-(methyloxy)pyridin-2-yl]methyl}sulfinyl)-5-(methyloxy)-1H-benzimidazole

>  <STRUCTURE_SMILES>
O=S(C1=NC2=C(C=CC(=C2)OC)N1)CC3=C(C(=C(C=N3)C)OC)C

>  <STRUCTURE_Parent_SMILES>
O=S(C1=NC2=C(C=CC(=C2)OC)N1)CC3=C(C(=C(C=N3)C)OC)C

>  <STRUCTURE_InChI>
InChI=1/C17H19N3O3S/c1-10-8-18-15(11(2)16(10)23-4)9-24(21)17-19-13-6-5-12(22-3)7-14(13)20-17/h5-8H,9H2,1-4H3,(H,19,20)/f/h19H

>  <STRUCTURE_InChIKey>
SUBDBMMJDZJVOS-LILDFLRNCA

>  <StudyType>
Carcinogenicity

>  <Endpoint>
TD50; Tumor Target Sites

>  <Species>
rat; mouse

>  <TD50_Rat_mg>
119

>  <TD50_Rat_mmol>
0.345

>  <ActivityScore_CPDBAS_Rat>
30

>  <TD50_Rat_Note>
TD50 is harmonic mean of more than one positive test; greater than ten-fold variation among TD50 values for positive results

>  <TargetSites_Rat_Male>
stomach

>  <TargetSites_Rat_Female>
stomach

>  <ActivityOutcome_CPDBAS_Rat>
active

>  <ActivityScore_CPDBAS_Mouse>
0

>  <TD50_Mouse_Note>
no positive results

>  <TargetSites_Mouse_Male>
no positive results

>  <TargetSites_Mouse_Female>
no positive results

>  <ActivityOutcome_CPDBAS_Mouse>
inactive

>  <ActivityOutcome_CPDBAS_SingleCellCall>
active

>  <ActivityOutcome_CPDBAS_MultiCellCall>
active

>  <ActivityOutcome_CPDBAS_MultiCellCall_Details>
multisex active

>  <Note_CPDBAS>
TD50_Rat modified v2a; TargetSites_Rat_Male modified v2a; TargetSites_Rat_Female modified v2a

>  <ChemicalPage_URL>
http://potency.berkeley.edu/chempages/OMEPRAZOLE.html

$$$$



 30 31  0  0  0  0  0  0  0  0999 V2000
    5.7560   -0.4951    0.0000 C   0  0  0  0  0  0  0  0  0  0  0  0
    6.8907   -1.1760    0.0000 S   0  0  0  0  0  0  0  0  0  0  0  0
    6.2305   -2.3107    0.0000 O   0  0  0  0  0  0  0  0  0  0  0  0
    7.5715    0.0000    0.0000 O   0  0  0  0  0  0  0  0  0  0  0  0
    8.0460   -1.8155    0.0000 N   0  0  0  0  0  0  0  0  0  0  0  0
    8.0460   -3.1565    0.0000 C   0  0  0  0  0  0  0  0  0  0  0  0
    6.8907   -3.8373    0.0000 N   0  0  0  0  0  0  0  0  0  0  0  0
    5.7560   -3.1565    0.0000 C   0  0  0  0  0  0  0  0  0  0  0  0
    4.6007   -3.8373    0.0000 C   0  0  3  0  0  0  0  0  0  0  0  0
    4.6007   -5.1577    0.0000 O   0  0  0  0  0  0  0  0  0  0  0  0
    3.4454   -3.1565    0.0000 C   0  0  0  0  0  0  0  0  0  0  0  0
    2.3107   -3.8373    0.0000 C   0  0  0  0  0  0  0  0  0  0  0  0
    3.4454   -1.8155    0.0000 C   0  0  0  0  0  0  0  0  0  0  0  0
    1.1347   -3.1565    0.0000 C   0  0  0  0  0  0  0  0  0  0  0  0
    2.3107   -1.1760    0.0000 C   0  0  0  0  0  0  0  0  0  0  0  0
    1.1347   -1.8155    0.0000 C   0  0  0  0  0  0  0  0  0  0  0  0
    0.0000   -1.1760    0.0000 O   0  0  0  0  0  0  0  0  0  0  0  0
    9.2014   -3.8373    0.0000 N   0  0  0  0  0  0  0  0  0  0  0  0
   10.3567   -3.1565    0.0000 C   0  0  0  0  0  0  0  0  0  0  0  0
   11.4914   -3.8373    0.0000 C   0  0  0  0  0  0  0  0  0  0  0  0
   12.6467   -3.1565    0.0000 S   0  0  0  0  0  0  0  0  0  0  0  0
   13.8020   -3.8373    0.0000 C   0  0  0  0  0  0  0  0  0  0  0  0
   16.0508   -4.0436    0.0000 O   0  0  0  0  0  0  0  0  0  0  0  0
   17.1030   -3.2597    0.0000 C   0  0  0  0  0  0  0  0  0  0  0  0
   14.9780   -3.2597    0.0000 C   0  0  0  0  0  0  0  0  0  0  0  0
   16.6904   -2.0012    0.0000 C   0  0  0  0  0  0  0  0  0  0  0  0
   15.3700   -2.0012    0.0000 C   0  0  0  0  0  0  0  0  0  0  0  0
   18.3821   -3.6723    0.0000 C   0  0  0  0  0  0  0  0  0  0  0  0
   19.3724   -2.7852    0.0000 N   0  0  0  0  0  0  0  0  0  0  0  0
   20.6308   -3.1978    0.0000 C   0  0  0  0  0  0  0  0  0  0  0  0
  1  2  1  0  0  0  0
  2  3  2  0  0  0  0
  2  5  1  0  0  0  0
  2  4  2  0  0  0  0
  5  6  2  0  0  0  0
  6  7  1  0  0  0  0
  6 18  1  0  0  0  0
  7  8  1  0  0  0  0
  8  9  1  0  0  0  0
  9 10  1  0  0  0  0
  9 11  1  0  0  0  0
 11 12  2  0  0  0  0
 11 13  1  0  0  0  0
 12 14  1  0  0  0  0
 13 15  2  0  0  0  0
 14 16  2  0  0  0  0
 15 16  1  0  0  0  0
 16 17  1  0  0  0  0
 18 19  1  0  0  0  0
 19 20  1  0  0  0  0
 20 21  1  0  0  0  0
 21 22  1  0  0  0  0
 22 25  1  0  0  0  0
 23 24  1  0  0  0  0
 23 25  1  0  0  0  0
 24 26  2  0  0  0  0
 24 28  1  0  0  0  0
 25 27  2  0  0  0  0
 26 27  1  0  0  0  0
 28 29  1  0  0  0  0
 29 30  1  0  0  0  0
M  END
>  <DSSTox_RID>
40815

>  <DSSTox_CID>
20240

>  <DSSTox_Generic_SID>
40240

>  <DSSTox_FileID>
1134_CPDBAS_v5d

>  <STRUCTURE_Formula>
C19H28N4O5S2

>  <STRUCTURE_MolecularWeight>
456.5794

>  <STRUCTURE_ChemicalType>
defined organic

>  <STRUCTURE_TestedForm_DefinedOrganic>
parent

>  <STRUCTURE_Shown>
tested chemical

>  <TestSubstance_ChemicalName>
Osutidine

>  <TestSubstance_CASRN>
140695-21-2

>  <TestSubstance_Description>
single chemical compound

>  <ChemicalNote>
racemic mixture of 2R,S structure showb without stereochem

>  <STRUCTURE_ChemicalName_IUPAC>
N-[(1E)-{[2-hydroxy-2-(4-hydroxyphenyl)ethyl]amino}({2-[({5-[(methylamino)methyl]furan-2-yl}methyl)sulfanyl]ethyl}amino)methylidene]methanesulfonamide

>  <STRUCTURE_SMILES>
O=S(\N=C(NCCSCC2=CC=C(CNC)O2)/NCC(C1=CC=C(O)C=C1)O)(C)=O

>  <STRUCTURE_Parent_SMILES>
O=S(\N=C(NCCSCC2=CC=C(CNC)O2)/NCC(C1=CC=C(O)C=C1)O)(C)=O

>  <STRUCTURE_InChI>
InChI=1/C19H28N4O5S2/c1-20-11-16-7-8-17(28-16)13-29-10-9-21-19(23-30(2,26)27)22-12-18(25)14-3-5-15(24)6-4-14/h3-8,18,20,24-25H,9-13H2,1-2H3,(H2,21,22,23)/f/h21-22H/b23-19-

>  <STRUCTURE_InChIKey>
GZPOYVTZKHVRHE-COAITWMZDX

>  <StudyType>
Carcinogenicity

>  <Endpoint>
TD50; Tumor Target Sites

>  <Species>
rat

>  <ActivityScore_CPDBAS_Rat>
0

>  <TD50_Rat_Note>
no positive results

>  <TargetSites_Rat_Male>
no positive results

>  <TargetSites_Rat_Female>
no positive results

>  <ActivityOutcome_CPDBAS_Rat>
inactive

>  <ActivityOutcome_CPDBAS_SingleCellCall>
active

>  <ActivityOutcome_CPDBAS_MultiCellCall>
active

>  <ActivityOutcome_CPDBAS_MultiCellCall_Details>
multisex active

>  <Note_CPDBAS>
Rat added v5a; chemical added v5a

>  <ChemicalPage_URL>
http://potency.berkeley.edu/chempages/OSUTIDINE.html

$$$$



 14 13  0  0  0  0  0  0  0  0999 V2000
    5.3253   -4.6067    0.0000 O   0  0  0  0  0  0  0  0  0  0  0  0
    5.9879   -3.4570    0.0000 C   0  0  0  0  0  0  0  0  0  0  0  0
    5.3253   -2.2994    0.0000 C   0  0  0  0  0  0  0  0  0  0  0  0
    3.9920   -2.2994    0.0000 N   0  0  0  0  0  0  0  0  0  0  0  0
    3.3293   -1.1497    0.0000 O   0  0  0  0  0  0  0  0  0  0  0  0
    1.9960   -1.1497    0.0000 C   0  0  0  0  0  0  0  0  0  0  0  0
    1.3333    0.0000    0.0000 O   0  0  0  0  0  0  0  0  0  0  0  0
    1.3333   -2.2994    0.0000 N   0  0  0  0  0  0  0  0  0  0  0  0
    0.0000   -2.2994    0.0000 C   0  0  0  0  0  0  0  0  0  0  0  0
    5.9879   -1.1497    0.0000 S   0  0  0  0  0  0  0  0  0  0  0  0
    5.3253    0.0000    0.0000 C   0  0  0  0  0  0  0  0  0  0  0  0
    7.3213   -3.4570    0.0000 N   0  0  0  0  0  0  0  0  0  0  0  0
    7.9839   -2.2994    0.0000 C   0  0  0  0  0  0  0  0  0  0  0  0
    7.9839   -4.6067    0.0000 C   0  0  0  0  0  0  0  0  0  0  0  0
  1  2  2  0  0  0  0
  2  3  1  0  0  0  0
  2 12  1  0  0  0  0
  3  4  2  0  0  0  0
  3 10  1  0  0  0  0
  4  5  1  0  0  0  0
  5  6  1  0  0  0  0
  6  7  2  0  0  0  0
  6  8  1  0  0  0  0
  8  9  1  0  0  0  0
 10 11  1  0  0  0  0
 12 13  1  0  0  0  0
 12 14  1  0  0  0  0
M  END
>  <DSSTox_RID>
21086

>  <DSSTox_CID>
1086

>  <DSSTox_Generic_SID>
21086

>  <DSSTox_FileID>
1136_CPDBAS_v5d

>  <STRUCTURE_Formula>
C7H13N3O3S

>  <STRUCTURE_MolecularWeight>
219.2614

>  <STRUCTURE_ChemicalType>
defined organic

>  <STRUCTURE_TestedForm_DefinedOrganic>
parent

>  <STRUCTURE_Shown>
tested chemical

>  <TestSubstance_ChemicalName>
Oxamyl

>  <TestSubstance_CASRN>
23135-22-0

>  <TestSubstance_Description>
single chemical compound

>  <STRUCTURE_ChemicalName_IUPAC>
methyl (1Z)-2-(dimethylamino)-N-{[(methylamino)carbonyl]oxy}-2-oxoethanimidothioate

>  <STRUCTURE_SMILES>
O=C(C(=NOC(=O)NC)SC)N(C)C

>  <STRUCTURE_Parent_SMILES>
O=C(C(=NOC(=O)NC)SC)N(C)C

>  <STRUCTURE_InChI>
InChI=1/C7H13N3O3S/c1-8-7(12)13-9-5(14-4)6(11)10(2)3/h1-4H3,(H,8,12)/b9-5-/f/h8H

>  <STRUCTURE_InChIKey>
KZAUOCCYDRDERY-MGRUMOMHDZ

>  <StudyType>
Carcinogenicity

>  <Endpoint>
TD50; Tumor Target Sites

>  <Species>
rat; mouse

>  <ActivityScore_CPDBAS_Rat>
0

>  <TD50_Rat_Note>
no positive results

>  <TargetSites_Rat_Male>
no positive results

>  <TargetSites_Rat_Female>
no positive results

>  <ActivityOutcome_CPDBAS_Rat>
inactive

>  <ActivityScore_CPDBAS_Mouse>
0

>  <TD50_Mouse_Note>
no positive results

>  <TargetSites_Mouse_Male>
no positive results

>  <TargetSites_Mouse_Female>
no positive results

>  <ActivityOutcome_CPDBAS_Mouse>
inactive

>  <ActivityOutcome_CPDBAS_SingleCellCall>
inactive

>  <ActivityOutcome_CPDBAS_MultiCellCall>
inactive

>  <ActivityOutcome_CPDBAS_MultiCellCall_Details>
multisex inactive; multispecies inactive

>  <ChemicalPage_URL>
http://potency.berkeley.edu/chempages/OXAMYL.html

$$$$



 20 22  0  0  0  0  0  0  0  0999 V2000
    1.6905    0.0000    0.0000 Cl  0  0  0  0  0  0  0  0  0  0  0  0
    2.8391   -0.6633    0.0000 C   0  0  0  0  0  0  0  0  0  0  0  0
    3.9958    0.0000    0.0000 C   0  0  0  0  0  0  0  0  0  0  0  0
    5.1444   -0.6633    0.0000 C   0  0  0  0  0  0  0  0  0  0  0  0
    5.1444   -1.9979    0.0000 C   0  0  0  0  0  0  0  0  0  0  0  0
    3.9958   -2.6612    0.0000 C   0  0  0  0  0  0  0  0  0  0  0  0
    2.8391   -1.9979    0.0000 C   0  0  0  0  0  0  0  0  0  0  0  0
    3.7774   -3.9958    0.0000 C   0  0  0  0  0  0  0  0  0  0  0  0
    4.7157   -4.9341    0.0000 N   0  0  0  0  0  0  0  0  0  0  0  0
    6.0261   -4.8532    0.0000 C   0  0  3  0  0  0  0  0  0  0  0  0
    6.6894   -6.0018    0.0000 O   0  0  0  0  0  0  0  0  0  0  0  0
    6.7703   -3.7532    0.0000 C   0  0  0  0  0  0  0  0  0  0  0  0
    8.0887   -3.9554    0.0000 O   0  0  0  0  0  0  0  0  0  0  0  0
    6.3820   -2.4832    0.0000 N   0  0  0  0  0  0  0  0  0  0  0  0
    2.5075   -4.3841    0.0000 C   0  0  0  0  0  0  0  0  0  0  0  0
    2.2244   -5.6621    0.0000 C   0  0  0  0  0  0  0  0  0  0  0  0
    0.9383   -6.0746    0.0000 C   0  0  0  0  0  0  0  0  0  0  0  0
    0.0000   -5.1363    0.0000 C   0  0  0  0  0  0  0  0  0  0  0  0
    0.2750   -3.8583    0.0000 C   0  0  0  0  0  0  0  0  0  0  0  0
    1.5692   -3.4458    0.0000 C   0  0  0  0  0  0  0  0  0  0  0  0
  1  2  1  0  0  0  0
  2  3  2  0  0  0  0
  2  7  1  0  0  0  0
  3  4  1  0  0  0  0
  4  5  2  0  0  0  0
  5  6  1  0  0  0  0
  5 14  1  0  0  0  0
  6  7  2  0  0  0  0
  6  8  1  0  0  0  0
  8  9  2  0  0  0  0
  8 15  1  0  0  0  0
  9 10  1  0  0  0  0
 10 11  1  0  0  0  0
 10 12  1  0  0  0  0
 12 13  2  0  0  0  0
 12 14  1  0  0  0  0
 15 16  2  0  0  0  0
 15 20  1  0  0  0  0
 16 17  1  0  0  0  0
 17 18  2  0  0  0  0
 18 19  1  0  0  0  0
 19 20  2  0  0  0  0
M  END
>  <DSSTox_RID>
21087

>  <DSSTox_CID>
1087

>  <DSSTox_Generic_SID>
21087

>  <DSSTox_FileID>
1137_CPDBAS_v5d

>  <STRUCTURE_Formula>
C15H11ClN2O2

>  <STRUCTURE_MolecularWeight>
286.713

>  <STRUCTURE_ChemicalType>
defined organic

>  <STRUCTURE_TestedForm_DefinedOrganic>
parent

>  <STRUCTURE_Shown>
tested chemical

>  <TestSubstance_ChemicalName>
Oxazepam

>  <TestSubstance_CASRN>
604-75-1

>  <TestSubstance_Description>
single chemical compound

>  <ChemicalNote>
tautomers

>  <STRUCTURE_ChemicalName_IUPAC>
7-chloro-3-hydroxy-5-phenyl-1,3-dihydro-2H-1,4-benzodiazepin-2-one

>  <STRUCTURE_SMILES>
ClC1=CC=C2C(=C1)C(=NC(O)C(=O)N2)C3=CC=CC=C3

>  <STRUCTURE_Parent_SMILES>
ClC1=CC=C2C(=C1)C(=NC(O)C(=O)N2)C3=CC=CC=C3

>  <STRUCTURE_InChI>
InChI=1/C15H11ClN2O2/c16-10-6-7-12-11(8-10)13(9-4-2-1-3-5-9)18-15(20)14(19)17-12/h1-8,15,20H,(H,17,19)/f/h17H

>  <STRUCTURE_InChIKey>
ADIMAYPTOBDMTL-HCKMINDGCL

>  <StudyType>
Carcinogenicity

>  <Endpoint>
TD50; Tumor Target Sites

>  <Species>
rat; mouse

>  <ActivityOutcome_CPDBAS_Mutagenicity>
inactive

>  <ActivityScore_CPDBAS_Rat>
0

>  <TD50_Rat_Note>
no positive results

>  <TargetSites_Rat_Male>
no positive results

>  <TargetSites_Rat_Female>
no positive results

>  <ActivityOutcome_CPDBAS_Rat>
inactive

>  <TD50_Mouse_mg>
35.8

>  <TD50_Mouse_mmol>
0.125

>  <ActivityScore_CPDBAS_Mouse>
38

>  <TD50_Mouse_Note>
TD50 is harmonic mean of more than one positive test

>  <TargetSites_Mouse_Male>
liver

>  <TargetSites_Mouse_Female>
liver; thyroid gland

>  <ActivityOutcome_CPDBAS_Mouse>
active

>  <ActivityOutcome_CPDBAS_SingleCellCall>
active

>  <ActivityOutcome_CPDBAS_MultiCellCall>
active

>  <ActivityOutcome_CPDBAS_MultiCellCall_Details>
multisite active; multisex active

>  <Note_CPDBAS>
Rat added v3a

>  <NTP_TechnicalReport>
TR 468

>  <ChemicalPage_URL>
http://potency.berkeley.edu/chempages/OXAZEPAM.html

$$$$



 18 20  0  0  0  0  0  0  0  0999 V2000
    5.7635   -1.7600    0.0000 C   0  0  0  0  0  0  0  0  0  0  0  0
    7.0207   -1.3538    0.0000 C   0  0  0  0  0  0  0  0  0  0  0  0
    7.8040   -2.4273    0.0000 C   0  0  0  0  0  0  0  0  0  0  0  0
    9.1288   -2.2919    0.0000 C   0  0  0  0  0  0  0  0  0  0  0  0
    9.6703   -1.0734    0.0000 C   0  0  0  0  0  0  0  0  0  0  0  0
    8.8870    0.0000    0.0000 C   0  0  0  0  0  0  0  0  0  0  0  0
    7.5622   -0.1354    0.0000 C   0  0  0  0  0  0  0  0  0  0  0  0
    7.0207   -3.5007    0.0000 C   0  0  0  0  0  0  0  0  0  0  0  0
    5.7635   -3.0945    0.0000 C   0  0  0  0  0  0  0  0  0  0  0  0
    4.6031   -3.7521    0.0000 C   0  0  0  0  0  0  0  0  0  0  0  0
    3.4523   -3.0945    0.0000 C   0  0  0  0  0  0  0  0  0  0  0  0
    3.4523   -1.7600    0.0000 C   0  0  0  0  0  0  0  0  0  0  0  0
    4.6031   -1.0927    0.0000 C   0  0  0  0  0  0  0  0  0  0  0  0
    2.3015   -3.7521    0.0000 N   0  0  0  0  0  0  0  0  0  0  0  0
    1.1508   -3.0945    0.0000 C   0  0  0  0  0  0  0  0  0  0  0  0
    0.0000   -3.7521    0.0000 C   0  0  0  0  0  0  0  0  0  0  0  0
    1.1508   -1.7600    0.0000 O   0  0  0  0  0  0  0  0  0  0  0  0
    7.4365   -4.7675    0.0000 O   0  0  0  0  0  0  0  0  0  0  0  0
  1  2  1  0  0  0  0
  1  9  1  0  0  0  0
  1 13  2  0  0  0  0
  2  3  2  0  0  0  0
  2  7  1  0  0  0  0
  3  4  1  0  0  0  0
  3  8  1  0  0  0  0
  4  5  2  0  0  0  0
  5  6  1  0  0  0  0
  6  7  2  0  0  0  0
  8  9  1  0  0  0  0
  8 18  2  0  0  0  0
  9 10  2  0  0  0  0
 10 11  1  0  0  0  0
 11 12  2  0  0  0  0
 11 14  1  0  0  0  0
 12 13  1  0  0  0  0
 14 15  1  0  0  0  0
 15 16  1  0  0  0  0
 15 17  2  0  0  0  0
M  END
>  <DSSTox_RID>
21088

>  <DSSTox_CID>
1088

>  <DSSTox_Generic_SID>
21088

>  <DSSTox_FileID>
1138_CPDBAS_v5d

>  <STRUCTURE_Formula>
C15H11NO2

>  <STRUCTURE_MolecularWeight>
237.2574

>  <STRUCTURE_ChemicalType>
defined organic

>  <STRUCTURE_TestedForm_DefinedOrganic>
parent

>  <STRUCTURE_Shown>
tested chemical

>  <TestSubstance_ChemicalName>
N-(9-Oxo-2-fluorenyl)acetamide

>  <TestSubstance_CASRN>
3096-50-2

>  <TestSubstance_Description>
single chemical compound

>  <STRUCTURE_ChemicalName_IUPAC>
N-(9-oxo-9H-fluoren-2-yl)acetamide

>  <STRUCTURE_SMILES>
O=C(C)NC3=CC=C(C2=C3)C1=C(C2=O)C=CC=C1

>  <STRUCTURE_Parent_SMILES>
O=C(C)NC3=CC=C(C2=C3)C1=C(C2=O)C=CC=C1

>  <STRUCTURE_InChI>
InChI=1/C15H11NO2/c1-9(17)16-10-6-7-12-11-4-2-3-5-13(11)15(18)14(12)8-10/h2-8H,1H3,(H,16,17)/f/h16H

>  <STRUCTURE_InChIKey>
PYGNVSDRIIPHQP-WYUMXYHSCZ

>  <StudyType>
Carcinogenicity

>  <Endpoint>
TD50; Tumor Target Sites

>  <Species>
rat

>  <TD50_Rat_mg>
6.17

>  <TD50_Rat_mmol>
0.026

>  <ActivityScore_CPDBAS_Rat>
42

>  <TargetSites_Rat_Female>
ear Zymbals gland; liver; mammary gland

>  <ActivityOutcome_CPDBAS_Rat>
active

>  <ActivityOutcome_CPDBAS_SingleCellCall>
active

>  <ActivityOutcome_CPDBAS_MultiCellCall>
active

>  <ActivityOutcome_CPDBAS_MultiCellCall_Details>
multisite active

>  <ChemicalPage_URL>
http://potency.berkeley.edu/chempages/N-(9-OXO-2-FLUORENYL)ACETAMIDE.html

$$$$



 19 21  0  0  0  0  0  0  0  0999 V2000
    5.4994   -5.9830    0.0000 O   0  0  0  0  0  0  0  0  0  0  0  0
    5.4994   -4.6574    0.0000 C   0  0  0  0  0  0  0  0  0  0  0  0
    4.3529   -3.9857    0.0000 C   0  0  0  0  0  0  0  0  0  0  0  0
    3.1975   -4.6574    0.0000 C   0  0  0  0  0  0  0  0  0  0  0  0
    2.0421   -3.9857    0.0000 C   0  0  0  0  0  0  0  0  0  0  0  0
    2.0421   -2.6601    0.0000 C   0  0  0  0  0  0  0  0  0  0  0  0
    3.1975   -1.9973    0.0000 C   0  0  0  0  0  0  0  0  0  0  0  0
    4.3529   -2.6601    0.0000 C   0  0  0  0  0  0  0  0  0  0  0  0
    5.4994   -1.9973    0.0000 N   0  0  0  0  0  0  0  0  0  0  0  0
    6.6548   -2.6601    0.0000 C   0  0  0  0  0  0  0  0  0  0  0  0
    6.6548   -3.9857    0.0000 C   0  0  0  0  0  0  0  0  0  0  0  0
    7.8012   -4.6574    0.0000 C   0  0  0  0  0  0  0  0  0  0  0  0
    7.8012   -5.9830    0.0000 O   0  0  0  0  0  0  0  0  0  0  0  0
    8.9566   -3.9857    0.0000 O   0  0  0  0  0  0  0  0  0  0  0  0
    5.4994   -0.6628    0.0000 C   0  0  0  0  0  0  0  0  0  0  0  0
    6.6548    0.0000    0.0000 C   0  0  0  0  0  0  0  0  0  0  0  0
    0.7792   -2.2481    0.0000 O   0  0  0  0  0  0  0  0  0  0  0  0
    0.0000   -3.3229    0.0000 C   0  0  0  0  0  0  0  0  0  0  0  0
    0.7792   -4.3977    0.0000 O   0  0  0  0  0  0  0  0  0  0  0  0
  1  2  2  0  0  0  0
  2  3  1  0  0  0  0
  2 11  1  0  0  0  0
  3  4  2  0  0  0  0
  3  8  1  0  0  0  0
  4  5  1  0  0  0  0
  5  6  2  0  0  0  0
  5 19  1  0  0  0  0
  6  7  1  0  0  0  0
  6 17  1  0  0  0  0
  7  8  2  0  0  0  0
  8  9  1  0  0  0  0
  9 10  1  0  0  0  0
  9 15  1  0  0  0  0
 10 11  2  0  0  0  0
 11 12  1  0  0  0  0
 12 13  2  0  0  0  0
 12 14  1  0  0  0  0
 15 16  1  0  0  0  0
 17 18  1  0  0  0  0
 18 19  1  0  0  0  0
M  END
>  <DSSTox_RID>
21089

>  <DSSTox_CID>
1089

>  <DSSTox_Generic_SID>
21089

>  <DSSTox_FileID>
1139_CPDBAS_v5d

>  <STRUCTURE_Formula>
C13H11NO5

>  <STRUCTURE_MolecularWeight>
261.2336

>  <STRUCTURE_ChemicalType>
defined organic

>  <STRUCTURE_TestedForm_DefinedOrganic>
parent

>  <STRUCTURE_Shown>
tested chemical

>  <TestSubstance_ChemicalName>
Oxolinic acid

>  <TestSubstance_CASRN>
14698-29-4

>  <TestSubstance_Description>
single chemical compound

>  <STRUCTURE_ChemicalName_IUPAC>
5-ethyl-8-oxo-5,8-dihydro[1,3]dioxolo[4,5-g]quinoline-7-carboxylic acid

>  <STRUCTURE_SMILES>
O=C1C2=CC3=C(C=C2N(C=C1C(=O)O)CC)OCO3

>  <STRUCTURE_Parent_SMILES>
O=C1C2=CC3=C(C=C2N(C=C1C(=O)O)CC)OCO3

>  <STRUCTURE_InChI>
InChI=1/C13H11NO5/c1-2-14-5-8(13(16)17)12(15)7-3-10-11(4-9(7)14)19-6-18-10/h3-5H,2,6H2,1H3,(H,16,17)/f/h16H

>  <STRUCTURE_InChIKey>
KYGZCKSPAKDVKC-WYUMXYHSCH

>  <StudyType>
Carcinogenicity

>  <Endpoint>
TD50; Tumor Target Sites

>  <Species>
rat; mouse

>  <TD50_Rat_mg>
167

>  <TD50_Rat_mmol>
0.639

>  <ActivityScore_CPDBAS_Rat>
28

>  <TargetSites_Rat_Male>
testes

>  <TargetSites_Rat_Female>
no positive results

>  <ActivityOutcome_CPDBAS_Rat>
active

>  <ActivityScore_CPDBAS_Mouse>
0

>  <TD50_Mouse_Note>
no positive results

>  <TargetSites_Mouse_Male>
no positive results

>  <TargetSites_Mouse_Female>
no positive results

>  <ActivityOutcome_CPDBAS_Mouse>
inactive

>  <ActivityOutcome_CPDBAS_SingleCellCall>
active

>  <ChemicalPage_URL>
http://potency.berkeley.edu/chempages/OXOLINIC%20ACID.html

$$$$



 13 12  0  0  0  0  0  0  0  0999 V2000
    3.3259   -3.4535    0.0000 O   0  0  0  0  0  0  0  0  0  0  0  0
    3.9879   -2.2970    0.0000 C   0  0  0  0  0  0  0  0  0  0  0  0
    3.3259   -1.1485    0.0000 N   0  0  0  0  0  0  0  0  0  0  0  0
    1.9939   -1.1485    0.0000 C   0  0  0  0  0  0  0  0  0  0  0  0
    1.3320   -2.2970    0.0000 C   0  0  0  0  0  0  0  0  0  0  0  0
    1.9939   -3.4535    0.0000 C   0  0  0  0  0  0  0  0  0  0  0  0
    0.0000   -2.2970    0.0000 O   0  0  0  0  0  0  0  0  0  0  0  0
    3.9879    0.0000    0.0000 N   0  0  0  0  0  0  0  0  0  0  0  0
    5.3199    0.0000    0.0000 O   0  0  0  0  0  0  0  0  0  0  0  0
    5.3199   -2.2970    0.0000 N   0  0  0  0  0  0  0  0  0  0  0  0
    5.9818   -3.4535    0.0000 C   0  0  0  0  0  0  0  0  0  0  0  0
    7.3138   -3.4535    0.0000 C   0  0  0  0  0  0  0  0  0  0  0  0
    7.9758   -4.6020    0.0000 Cl  0  0  0  0  0  0  0  0  0  0  0  0
  1  2  2  0  0  0  0
  2  3  1  0  0  0  0
  2 10  1  0  0  0  0
  3  4  1  0  0  0  0
  3  8  1  0  0  0  0
  4  5  1  0  0  0  0
  5  6  1  0  0  0  0
  5  7  2  0  0  0  0
  8  9  2  0  0  0  0
 10 11  1  0  0  0  0
 11 12  1  0  0  0  0
 12 13  1  0  0  0  0
M  END
>  <DSSTox_RID>
21090

>  <DSSTox_CID>
1090

>  <DSSTox_Generic_SID>
21090

>  <DSSTox_FileID>
1140_CPDBAS_v5d

>  <STRUCTURE_Formula>
C6H10ClN3O3

>  <STRUCTURE_MolecularWeight>
207.6163

>  <STRUCTURE_ChemicalType>
defined organic

>  <STRUCTURE_TestedForm_DefinedOrganic>
parent

>  <STRUCTURE_Shown>
tested chemical

>  <TestSubstance_ChemicalName>
1-(2-Oxopropyl)nitroso-3-(2-chloroethyl)urea

>  <TestSubstance_CASRN>
110559-85-8

>  <TestSubstance_Description>
single chemical compound

>  <STRUCTURE_ChemicalName_IUPAC>
3-(2-chloroethyl)-1-nitroso-1-(2-oxopropyl)urea

>  <STRUCTURE_SMILES>
O=C(N(CC(C)=O)N=O)NCCCl

>  <STRUCTURE_Parent_SMILES>
O=C(N(CC(C)=O)N=O)NCCCl

>  <STRUCTURE_InChI>
InChI=1/C6H10ClN3O3/c1-5(11)4-10(9-13)6(12)8-3-2-7/h2-4H2,1H3,(H,8,12)/f/h8H

>  <STRUCTURE_InChIKey>
KTTAHABZUYACCH-FZOZFQFYCE

>  <StudyType>
Carcinogenicity

>  <Endpoint>
TD50; Tumor Target Sites

>  <Species>
rat; hamster

>  <ActivityScore_CPDBAS_Rat>
0

>  <TD50_Rat_Note>
no positive results

>  <TargetSites_Rat_Male>
no positive results

>  <TargetSites_Rat_Female>
no positive results

>  <ActivityOutcome_CPDBAS_Rat>
inactive

>  <TD50_Hamster_mg>
0.338

>  <TD50_Hamster_mmol>
0.00163

>  <ActivityScore_CPDBAS_Hamster>
93

>  <TD50_Hamster_Note>
TD50 is harmonic mean of more than one positive test

>  <TargetSites_Hamster_Male>
vascular system

>  <TargetSites_Hamster_Female>
vascular system

>  <ActivityOutcome_CPDBAS_Hamster>
active

>  <ActivityOutcome_CPDBAS_SingleCellCall>
active

>  <ActivityOutcome_CPDBAS_MultiCellCall>
active

>  <ActivityOutcome_CPDBAS_MultiCellCall_Details>
multisex active

>  <ChemicalPage_URL>
http://potency.berkeley.edu/chempages/1-(2-OXOPROPYL)NITROSO-3-(2-CHLOROETHYL)UREA.html

$$$$



 10  9  0  0  0  0  0  0  0  0999 V2000
    2.3042   -1.9989    0.0000 N   0  0  0  0  0  0  0  0  0  0  0  0
    2.3042   -0.6682    0.0000 C   0  0  0  0  0  0  0  0  0  0  0  0
    3.4563    0.0000    0.0000 O   0  0  0  0  0  0  0  0  0  0  0  0
    1.1521    0.0000    0.0000 N   0  0  0  0  0  0  0  0  0  0  0  0
    1.1521   -2.6614    0.0000 N   0  0  0  0  0  0  0  0  0  0  0  0
    0.0000   -1.9989    0.0000 O   0  0  0  0  0  0  0  0  0  0  0  0
    3.4563   -2.6614    0.0000 C   0  0  0  0  0  0  0  0  0  0  0  0
    4.6084   -1.9989    0.0000 C   0  0  0  0  0  0  0  0  0  0  0  0
    5.7605   -2.6614    0.0000 C   0  0  0  0  0  0  0  0  0  0  0  0
    4.6084   -0.6682    0.0000 O   0  0  0  0  0  0  0  0  0  0  0  0
  1  2  1  0  0  0  0
  1  5  1  0  0  0  0
  1  7  1  0  0  0  0
  2  3  2  0  0  0  0
  2  4  1  0  0  0  0
  5  6  2  0  0  0  0
  7  8  1  0  0  0  0
  8  9  1  0  0  0  0
  8 10  2  0  0  0  0
M  END
>  <DSSTox_RID>
21091

>  <DSSTox_CID>
1091

>  <DSSTox_Generic_SID>
21091

>  <DSSTox_FileID>
1141_CPDBAS_v5d

>  <STRUCTURE_Formula>
C4H7N3O3

>  <STRUCTURE_MolecularWeight>
145.1176

>  <STRUCTURE_ChemicalType>
defined organic

>  <STRUCTURE_TestedForm_DefinedOrganic>
parent

>  <STRUCTURE_Shown>
tested chemical

>  <TestSubstance_ChemicalName>
2-Oxopropylnitrosourea

>  <TestSubstance_CASRN>
89837-93-4

>  <TestSubstance_Description>
single chemical compound

>  <STRUCTURE_ChemicalName_IUPAC>
1-nitroso-1-(2-oxopropyl)urea

>  <STRUCTURE_SMILES>
N(C(=O)N)(N=O)CC(C)=O

>  <STRUCTURE_Parent_SMILES>
N(C(=O)N)(N=O)CC(C)=O

>  <STRUCTURE_InChI>
InChI=1/C4H7N3O3/c1-3(8)2-7(6-10)4(5)9/h2H2,1H3,(H2,5,9)/f/h5H2

>  <STRUCTURE_InChIKey>
BUMHFBGBXFTGJZ-GLFQYTTQCL

>  <StudyType>
Carcinogenicity

>  <Endpoint>
TD50; Tumor Target Sites

>  <Species>
rat; hamster

>  <ActivityScore_CPDBAS_Rat>
0

>  <TD50_Rat_Note>
no positive results

>  <TargetSites_Rat_Male>
no positive results

>  <TargetSites_Rat_Female>
no positive results

>  <ActivityOutcome_CPDBAS_Rat>
inactive

>  <TD50_Hamster_mg>
0.13

>  <TD50_Hamster_mmol>
0.000896

>  <ActivityScore_CPDBAS_Hamster>
99

>  <TD50_Hamster_Note>
TD50 is harmonic mean of more than one positive test

>  <TargetSites_Hamster_Male>
vascular system

>  <TargetSites_Hamster_Female>
vascular system

>  <ActivityOutcome_CPDBAS_Hamster>
active

>  <ActivityOutcome_CPDBAS_SingleCellCall>
active

>  <ActivityOutcome_CPDBAS_MultiCellCall>
active

>  <ActivityOutcome_CPDBAS_MultiCellCall_Details>
multisex active

>  <Note_CPDBAS>
Hamster added v3a

>  <ChemicalPage_URL>
http://potency.berkeley.edu/chempages/2-OXOPROPYLNITROSOUREA.html

$$$$



 13 14  0  0  0  0  0  0  0  0999 V2000
    5.5009   -3.9872    0.0000 O   0  0  0  0  0  0  0  0  0  0  0  0
    5.5009   -2.6607    0.0000 C   0  0  0  0  0  0  0  0  0  0  0  0
    4.3461   -1.9897    0.0000 C   0  0  0  0  0  0  0  0  0  0  0  0
    3.1991   -2.6607    0.0000 C   0  0  0  0  0  0  0  0  0  0  0  0
    2.0443   -1.9897    0.0000 C   0  0  0  0  0  0  0  0  0  0  0  0
    0.7803   -2.4032    0.0000 O   0  0  0  0  0  0  0  0  0  0  0  0
    0.0000   -1.3265    0.0000 C   0  0  0  0  0  0  0  0  0  0  0  0
    0.7803   -0.2497    0.0000 O   0  0  0  0  0  0  0  0  0  0  0  0
    2.0443   -0.6632    0.0000 C   0  0  0  0  0  0  0  0  0  0  0  0
    3.1991    0.0000    0.0000 C   0  0  0  0  0  0  0  0  0  0  0  0
    4.3461   -0.6632    0.0000 C   0  0  0  0  0  0  0  0  0  0  0  0
    6.6479   -1.9897    0.0000 C   0  0  0  0  0  0  0  0  0  0  0  0
    7.8027   -2.6607    0.0000 C   0  0  0  0  0  0  0  0  0  0  0  0
  1  2  2  0  0  0  0
  2  3  1  0  0  0  0
  2 12  1  0  0  0  0
  3  4  1  0  0  0  0
  3 11  2  0  0  0  0
  4  5  2  0  0  0  0
  5  6  1  0  0  0  0
  5  9  1  0  0  0  0
  6  7  1  0  0  0  0
  7  8  1  0  0  0  0
  8  9  1  0  0  0  0
  9 10  2  0  0  0  0
 10 11  1  0  0  0  0
 12 13  2  0  0  0  0
M  END
>  <DSSTox_RID>
21092

>  <DSSTox_CID>
1092

>  <DSSTox_Generic_SID>
21092

>  <DSSTox_FileID>
1142_CPDBAS_v5d

>  <STRUCTURE_Formula>
C10H8O3

>  <STRUCTURE_MolecularWeight>
176.1714

>  <STRUCTURE_ChemicalType>
defined organic

>  <STRUCTURE_TestedForm_DefinedOrganic>
parent

>  <STRUCTURE_Shown>
tested chemical

>  <TestSubstance_ChemicalName>
1'-Oxosafrole

>  <TestSubstance_CASRN>
30418-53-2

>  <TestSubstance_Description>
single chemical compound

>  <STRUCTURE_ChemicalName_IUPAC>
1-(1,3-benzodioxol-5-yl)prop-2-en-1-one

>  <STRUCTURE_SMILES>
O=C(C=C)C1=CC=C2C(OCO2)=C1

>  <STRUCTURE_Parent_SMILES>
O=C(C=C)C1=CC=C2C(OCO2)=C1

>  <STRUCTURE_InChI>
InChI=1/C10H8O3/c1-2-8(11)7-3-4-9-10(5-7)13-6-12-9/h2-5H,1,6H2

>  <STRUCTURE_InChIKey>
LNOUMTOCQWMBOJ-UHFFFAOYAU

>  <StudyType>
Carcinogenicity

>  <Endpoint>
TD50; Tumor Target Sites

>  <Species>
rat

>  <ActivityOutcome_CPDBAS_Mutagenicity>
inactive

>  <ActivityScore_CPDBAS_Rat>
0

>  <TD50_Rat_Note>
no positive results

>  <TargetSites_Rat_Male>
no positive results

>  <ActivityOutcome_CPDBAS_Rat>
inactive

>  <ActivityOutcome_CPDBAS_SingleCellCall>
inactive

>  <ChemicalPage_URL>
http://potency.berkeley.edu/chempages/1'-OXOSAFROLE.html

$$$$



 15 16  0  0  0  0  0  0  0  0999 V2000
    9.2080   -2.6611    0.0000 N   0  0  0  0  0  0  0  0  0  0  0  0
    8.0570   -1.9981    0.0000 C   0  0  0  0  0  0  0  0  0  0  0  0
    6.9060   -2.6611    0.0000 C   0  0  0  0  0  0  0  0  0  0  0  0
    5.7550   -1.9981    0.0000 C   0  0  0  0  0  0  0  0  0  0  0  0
    5.7550   -0.6630    0.0000 C   0  0  0  0  0  0  0  0  0  0  0  0
    6.9060    0.0000    0.0000 C   0  0  0  0  0  0  0  0  0  0  0  0
    8.0570   -0.6630    0.0000 C   0  0  0  0  0  0  0  0  0  0  0  0
    4.6040    0.0000    0.0000 O   0  0  0  0  0  0  0  0  0  0  0  0
    3.4530   -0.6630    0.0000 C   0  0  0  0  0  0  0  0  0  0  0  0
    3.4530   -1.9981    0.0000 C   0  0  0  0  0  0  0  0  0  0  0  0
    2.3020   -2.6611    0.0000 C   0  0  0  0  0  0  0  0  0  0  0  0
    1.1510   -1.9981    0.0000 C   0  0  0  0  0  0  0  0  0  0  0  0
    1.1510   -0.6630    0.0000 C   0  0  0  0  0  0  0  0  0  0  0  0
    2.3020    0.0000    0.0000 C   0  0  0  0  0  0  0  0  0  0  0  0
    0.0000   -2.6611    0.0000 N   0  0  0  0  0  0  0  0  0  0  0  0
  1  2  1  0  0  0  0
  2  3  2  0  0  0  0
  2  7  1  0  0  0  0
  3  4  1  0  0  0  0
  4  5  2  0  0  0  0
  5  6  1  0  0  0  0
  5  8  1  0  0  0  0
  6  7  2  0  0  0  0
  8  9  1  0  0  0  0
  9 10  2  0  0  0  0
  9 14  1  0  0  0  0
 10 11  1  0  0  0  0
 11 12  2  0  0  0  0
 12 13  1  0  0  0  0
 12 15  1  0  0  0  0
 13 14  2  0  0  0  0
M  END
>  <DSSTox_RID>
21094

>  <DSSTox_CID>
1094

>  <DSSTox_Generic_SID>
21094

>  <DSSTox_FileID>
1144_CPDBAS_v5d

>  <STRUCTURE_Formula>
C12H12N2O

>  <STRUCTURE_MolecularWeight>
200.2365

>  <STRUCTURE_ChemicalType>
defined organic

>  <STRUCTURE_TestedForm_DefinedOrganic>
parent

>  <STRUCTURE_Shown>
tested chemical

>  <TestSubstance_ChemicalName>
4,4'-Oxydianiline

>  <TestSubstance_CASRN>
101-80-4

>  <TestSubstance_Description>
single chemical compound

>  <STRUCTURE_ChemicalName_IUPAC>
4,4'-oxydianiline

>  <STRUCTURE_SMILES>
NC1=CC=C(C=C1)OC2=CC=C(C=C2)N

>  <STRUCTURE_Parent_SMILES>
NC1=CC=C(C=C1)OC2=CC=C(C=C2)N

>  <STRUCTURE_InChI>
InChI=1/C12H12N2O/c13-9-1-5-11(6-2-9)15-12-7-3-10(14)4-8-12/h1-8H,13-14H2

>  <STRUCTURE_InChIKey>
HLBLWEWZXPIGSM-UHFFFAOYAM

>  <StudyType>
Carcinogenicity

>  <Endpoint>
TD50; Tumor Target Sites

>  <Species>
rat; mouse

>  <ActivityOutcome_CPDBAS_Mutagenicity>
active

>  <TD50_Rat_mg>
9.51

>  <TD50_Rat_mmol>
0.0475

>  <ActivityScore_CPDBAS_Rat>
39

>  <TD50_Rat_Note>
TD50 is harmonic mean of more than one positive test

>  <TargetSites_Rat_Male>
liver; thyroid gland

>  <TargetSites_Rat_Female>
liver; thyroid gland

>  <ActivityOutcome_CPDBAS_Rat>
active

>  <TD50_Mouse_mg>
33.6

>  <TD50_Mouse_mmol>
0.168

>  <ActivityScore_CPDBAS_Mouse>
37

>  <TD50_Mouse_Note>
TD50 is harmonic mean of more than one positive test

>  <TargetSites_Mouse_Male>
harderian gland; liver

>  <TargetSites_Mouse_Female>
harderian gland; liver; thyroid gland

>  <ActivityOutcome_CPDBAS_Mouse>
active

>  <ActivityOutcome_CPDBAS_SingleCellCall>
active

>  <ActivityOutcome_CPDBAS_MultiCellCall>
active

>  <ActivityOutcome_CPDBAS_MultiCellCall_Details>
multisite active; multisex active; multispecies active

>  <NTP_TechnicalReport>
TR 205

>  <ChemicalPage_URL>
http://potency.berkeley.edu/chempages/4,4'-OXYDIANILINE.html

$$$$



 15 16  0  0  0  0  0  0  0  0999 V2000
    4.6510   -3.4580    0.0000 S   0  0  0  0  0  0  0  0  0  0  0  0
    3.9940   -2.3082    0.0000 C   0  0  0  0  0  0  0  0  0  0  0  0
    2.6626   -2.3082    0.0000 N   0  0  0  0  0  0  0  0  0  0  0  0
    1.9970   -3.4580    0.0000 C   0  0  0  0  0  0  0  0  0  0  0  0
    0.6657   -3.4580    0.0000 C   0  0  0  0  0  0  0  0  0  0  0  0
    0.0000   -2.3082    0.0000 O   0  0  0  0  0  0  0  0  0  0  0  0
    0.6657   -1.1584    0.0000 C   0  0  0  0  0  0  0  0  0  0  0  0
    1.9970   -1.1584    0.0000 C   0  0  0  0  0  0  0  0  0  0  0  0
    4.6510   -1.1584    0.0000 S   0  0  0  0  0  0  0  0  0  0  0  0
    5.9823   -1.1584    0.0000 N   0  0  0  0  0  0  0  0  0  0  0  0
    6.6480    0.0000    0.0000 C   0  0  0  0  0  0  0  0  0  0  0  0
    7.9793    0.0000    0.0000 C   0  0  0  0  0  0  0  0  0  0  0  0
    8.6450   -1.1584    0.0000 O   0  0  0  0  0  0  0  0  0  0  0  0
    7.9793   -2.3082    0.0000 C   0  0  0  0  0  0  0  0  0  0  0  0
    6.6480   -2.3082    0.0000 C   0  0  0  0  0  0  0  0  0  0  0  0
  1  2  2  0  0  0  0
  2  3  1  0  0  0  0
  2  9  1  0  0  0  0
  3  4  1  0  0  0  0
  3  8  1  0  0  0  0
  4  5  1  0  0  0  0
  5  6  1  0  0  0  0
  6  7  1  0  0  0  0
  7  8  1  0  0  0  0
  9 10  1  0  0  0  0
 10 11  1  0  0  0  0
 10 15  1  0  0  0  0
 11 12  1  0  0  0  0
 12 13  1  0  0  0  0
 13 14  1  0  0  0  0
 14 15  1  0  0  0  0
M  END
>  <DSSTox_RID>
21095

>  <DSSTox_CID>
1095

>  <DSSTox_Generic_SID>
21095

>  <DSSTox_FileID>
1145_CPDBAS_v5d

>  <STRUCTURE_Formula>
C9H16N2O2S2

>  <STRUCTURE_MolecularWeight>
248.3655

>  <STRUCTURE_ChemicalType>
defined organic

>  <STRUCTURE_TestedForm_DefinedOrganic>
parent

>  <STRUCTURE_Shown>
tested chemical

>  <TestSubstance_ChemicalName>
N-Oxydiethylene thiocarbamyl- N-oxydiethylene sulfenamide

>  <TestSubstance_CASRN>
13752-51-7

>  <TestSubstance_Description>
single chemical compound

>  <STRUCTURE_ChemicalName_IUPAC>
4-[(morpholin-4-ylcarbonothioyl)thio]morpholine

>  <STRUCTURE_SMILES>
S=C(N1CCOCC1)SN1CCOCC1

>  <STRUCTURE_Parent_SMILES>
S=C(N1CCOCC1)SN1CCOCC1

>  <STRUCTURE_InChI>
InChI=1/C9H16N2O2S2/c14-9(10-1-5-12-6-2-10)15-11-3-7-13-8-4-11/h1-8H2

>  <STRUCTURE_InChIKey>
HOEFWOBLOGZQIQ-UHFFFAOYAQ

>  <StudyType>
Carcinogenicity

>  <Endpoint>
TD50; Tumor Target Sites

>  <Species>
rat

>  <TD50_Rat_mg>
90.8

>  <TD50_Rat_mmol>
0.366

>  <ActivityScore_CPDBAS_Rat>
30

>  <TD50_Rat_Note>
TD50 is harmonic mean of more than one positive test

>  <TargetSites_Rat_Male>
kidney; urinary bladder

>  <TargetSites_Rat_Female>
kidney; urinary bladder

>  <ActivityOutcome_CPDBAS_Rat>
active

>  <ActivityOutcome_CPDBAS_SingleCellCall>
active

>  <ActivityOutcome_CPDBAS_MultiCellCall>
active

>  <ActivityOutcome_CPDBAS_MultiCellCall_Details>
multisite active; multisex active

>  <ChemicalPage_URL>
http://potency.berkeley.edu/chempages/N-OXYDIETHYLENE%20THIOCARBAMYL-N-OXYDIETHYLENE%20SULFE.html

$$$$



 16 18  0  0  0  0  0  0  0  0999 V2000
    3.9607   -1.9847    0.0000 N   0  0  0  0  0  0  0  0  0  0  0  0
    4.1000   -0.6616    0.0000 C   0  0  0  0  0  0  0  0  0  0  0  0
    2.8813   -0.1219    0.0000 S   0  0  0  0  0  0  0  0  0  0  0  0
    1.9934   -1.1055    0.0000 C   0  0  0  0  0  0  0  0  0  0  0  0
    2.6550   -2.2633    0.0000 C   0  0  0  0  0  0  0  0  0  0  0  0
    1.9934   -3.4123    0.0000 C   0  0  0  0  0  0  0  0  0  0  0  0
    0.6616   -3.4123    0.0000 C   0  0  0  0  0  0  0  0  0  0  0  0
    0.0000   -2.2633    0.0000 C   0  0  0  0  0  0  0  0  0  0  0  0
    0.6616   -1.1055    0.0000 C   0  0  0  0  0  0  0  0  0  0  0  0
    5.2490    0.0000    0.0000 S   0  0  0  0  0  0  0  0  0  0  0  0
    6.3981   -0.6616    0.0000 N   0  0  0  0  0  0  0  0  0  0  0  0
    7.5558    0.0000    0.0000 C   0  0  0  0  0  0  0  0  0  0  0  0
    8.7049   -0.6616    0.0000 C   0  0  0  0  0  0  0  0  0  0  0  0
    8.7049   -1.9934    0.0000 O   0  0  0  0  0  0  0  0  0  0  0  0
    7.5558   -2.6550    0.0000 C   0  0  0  0  0  0  0  0  0  0  0  0
    6.3981   -1.9934    0.0000 C   0  0  0  0  0  0  0  0  0  0  0  0
  1  2  2  0  0  0  0
  1  5  1  0  0  0  0
  2  3  1  0  0  0  0
  2 10  1  0  0  0  0
  3  4  1  0  0  0  0
  4  5  2  0  0  0  0
  4  9  1  0  0  0  0
  5  6  1  0  0  0  0
  6  7  2  0  0  0  0
  7  8  1  0  0  0  0
  8  9  2  0  0  0  0
 10 11  1  0  0  0  0
 11 12  1  0  0  0  0
 11 16  1  0  0  0  0
 12 13  1  0  0  0  0
 13 14  1  0  0  0  0
 14 15  1  0  0  0  0
 15 16  1  0  0  0  0
M  END
>  <DSSTox_RID>
21096

>  <DSSTox_CID>
1096

>  <DSSTox_Generic_SID>
21096

>  <DSSTox_FileID>
1146_CPDBAS_v5d

>  <STRUCTURE_Formula>
C11H12N2OS2

>  <STRUCTURE_MolecularWeight>
252.3558

>  <STRUCTURE_ChemicalType>
defined organic

>  <STRUCTURE_TestedForm_DefinedOrganic>
parent

>  <STRUCTURE_Shown>
tested chemical

>  <TestSubstance_ChemicalName>
N-Oxydiethylenebenzothiazole-2-sulfenamide

>  <TestSubstance_CASRN>
102-77-2

>  <TestSubstance_Description>
single chemical compound

>  <STRUCTURE_ChemicalName_IUPAC>
2-(morpholin-4-ylthio)-1,3-benzothiazole

>  <STRUCTURE_SMILES>
N1=C(SC2=C1C=CC=C2)SN3CCOCC3

>  <STRUCTURE_Parent_SMILES>
N1=C(SC2=C1C=CC=C2)SN3CCOCC3

>  <STRUCTURE_InChI>
InChI=1/C11H12N2OS2/c1-2-4-10-9(3-1)12-11(15-10)16-13-5-7-14-8-6-13/h1-4H,5-8H2

>  <STRUCTURE_InChIKey>
MHKLKWCYGIBEQF-UHFFFAOYAD

>  <StudyType>
Carcinogenicity

>  <Endpoint>
TD50; Tumor Target Sites

>  <Species>
mouse

>  <ActivityScore_CPDBAS_Mouse>
0

>  <TD50_Mouse_Note>
no positive results

>  <TargetSites_Mouse_Male>
no positive results

>  <TargetSites_Mouse_Female>
no positive results

>  <ActivityOutcome_CPDBAS_Mouse>
inactive

>  <ActivityOutcome_CPDBAS_SingleCellCall>
inactive

>  <ActivityOutcome_CPDBAS_MultiCellCall>
inactive

>  <ActivityOutcome_CPDBAS_MultiCellCall_Details>
multisex inactive

>  <ChemicalPage_URL>
http://potency.berkeley.edu/chempages/N-OXYDIETHYLENEBENZOTHIAZOLE-2-SULFENAMIDE.html

$$$$



 28 31  0  0  1  0  0  0  0  0999 V2000
    4.6045   -3.9468    0.0000 C   0  0  1  0  0  0  0  0  0  0  0  0
    8.0633   -1.9415    0.0000 C   0  0  1  0  0  0  0  0  0  0  0  0
    5.7292   -3.2996    0.0000 C   0  0  2  0  0  0  0  0  0  0  0  0
    8.0633   -3.2996    0.0000 C   0  0  2  0  0  0  0  0  0  0  0  0
    2.3023   -3.9574    0.0000 C   0  0  0  0  0  0  0  0  0  0  0  0
    6.9068   -3.9574    0.0000 C   0  0  2  0  0  0  0  0  0  0  0  0
    3.4481   -3.2996    0.0000 C   0  0  0  0  0  0  0  0  0  0  0  0
    4.6045   -5.2836    0.0000 C   0  0  2  0  0  0  0  0  0  0  0  0
    2.2917   -5.2729    0.0000 C   0  0  0  0  0  0  0  0  0  0  0  0
    9.3258   -1.5596    0.0000 C   0  0  2  0  0  0  0  0  0  0  0  0
    6.8856   -1.2944    0.0000 C   0  0  0  0  0  0  0  0  0  0  0  0
    5.7292   -1.9415    0.0000 C   0  0  0  0  0  0  0  0  0  0  0  0
    3.4481   -5.9626    0.0000 C   0  0  0  0  0  0  0  0  0  0  0  0
    9.3258   -3.7027    0.0000 C   0  0  0  0  0  0  0  0  0  0  0  0
    6.9068   -5.2836    0.0000 C   0  0  0  0  0  0  0  0  0  0  0  0
    1.1458   -3.2890    0.0000 C   0  0  0  0  0  0  0  0  0  0  0  0
    5.7292   -5.9626    0.0000 C   0  0  0  0  0  0  0  0  0  0  0  0
   10.0897   -2.6206    0.0000 C   0  0  0  0  0  0  0  0  0  0  0  0
    1.1458   -5.9414    0.0000 O   0  0  0  0  0  0  0  0  0  0  0  0
    4.6045   -2.6206    0.0000 C   0  0  0  0  0  0  0  0  0  0  0  0
    9.3895    0.0000    0.0000 O   0  0  0  0  0  0  0  0  0  0  0  0
    8.0845   -0.5517    0.0000 C   0  0  0  0  0  0  0  0  0  0  0  0
    0.0000   -3.9574    0.0000 O   0  0  0  0  0  0  0  0  0  0  0  0
   10.6096   -1.3050    0.0000 C   0  0  0  0  0  0  0  0  0  0  0  0
    8.0951   -4.6894    0.0000 H   0  0  0  0  0  0  0  0  0  0  0  0
    6.9280   -2.8434    0.0000 H   0  0  0  0  0  0  0  0  0  0  0  0
    5.6761   -4.3924    0.0000 H   0  0  0  0  0  0  0  0  0  0  0  0
    4.6470   -6.7158    0.0000 H   0  0  0  0  0  0  0  0  0  0  0  0
  1  3  1  0  0  0  0
  1  7  1  0  0  0  0
  1  8  1  0  0  0  0
  1 20  1  1  0  0  0
  2 11  1  0  0  0  0
  2 10  1  0  0  0  0
  2 22  1  1  0  0  0
  2  4  1  0  0  0  0
  3  6  1  0  0  0  0
  3 12  1  0  0  0  0
  3 27  1  6  0  0  0
  4  6  1  0  0  0  0
  4 14  1  0  0  0  0
  4 25  1  6  0  0  0
  5  7  1  0  0  0  0
  5 16  2  0  0  0  0
  5  9  1  0  0  0  0
  6 15  1  0  0  0  0
  6 26  1  1  0  0  0
  8 13  1  0  0  0  0
  8 17  1  0  0  0  0
  8 28  1  6  0  0  0
  9 13  1  0  0  0  0
  9 19  2  0  0  0  0
 10 21  1  1  0  0  0
 10 24  1  6  0  0  0
 10 18  1  0  0  0  0
 11 12  1  0  0  0  0
 14 18  1  0  0  0  0
 15 17  1  0  0  0  0
 16 23  1  0  0  0  0
M  END
>  <DSSTox_RID>
40816

>  <DSSTox_CID>
3794

>  <DSSTox_Generic_SID>
23794

>  <DSSTox_FileID>
1147_CPDBAS_v5d

>  <STRUCTURE_Formula>
C21H32O3

>  <STRUCTURE_MolecularWeight>
332.477

>  <STRUCTURE_ChemicalType>
defined organic

>  <STRUCTURE_TestedForm_DefinedOrganic>
parent

>  <STRUCTURE_Shown>
tested chemical

>  <TestSubstance_ChemicalName>
Oxymetholone

>  <TestSubstance_CASRN>
434-07-1

>  <TestSubstance_Description>
single chemical compound

>  <ChemicalNote>
stereochem, tautomers

>  <STRUCTURE_ChemicalName_IUPAC>
17-Hydroxy-2-(hydroxymethylene)-17-methyl-5-alpha-17-beta-androst-3-one

>  <STRUCTURE_SMILES>
O=C3C[C@@H]4CC[C@@H]1[C@H](CC[C@]2(C)[C@@](C)(O)CC[C@@H]12)[C@@]4(C)C\C3=C\O

>  <STRUCTURE_Parent_SMILES>
O=C3C[C@@H]4CC[C@@H]1[C@H](CC[C@]2(C)[C@@](C)(O)CC[C@@H]12)[C@@]4(C)C\C3=C\O

>  <STRUCTURE_InChI>
InChI=1/C21H32O3/c1-19-11-13(12-22)18(23)10-14(19)4-5-15-16(19)6-8-20(2)17(15)7-9-21(20,3)24/h12,14-17,22,24H,4-11H2,1-3H3/b13-12-/t14-,15+,16-,17-,19-,20-,21-/m0/s1

>  <STRUCTURE_InChIKey>
ICMWWNHDUZJFDW-DHODBPELBH

>  <StudyType>
Carcinogenicity

>  <Endpoint>
TD50; Tumor Target Sites

>  <Species>
rat

>  <ActivityOutcome_CPDBAS_Mutagenicity>
inactive

>  <TD50_Rat_mg>
66.9

>  <TD50_Rat_mmol>
0.201

>  <ActivityScore_CPDBAS_Rat>
33

>  <TargetSites_Rat_Male>
no positive results

>  <TargetSites_Rat_Female>
liver; lung; skin

>  <ActivityOutcome_CPDBAS_Rat>
active

>  <ActivityOutcome_CPDBAS_SingleCellCall>
active

>  <ActivityOutcome_CPDBAS_MultiCellCall>
active

>  <ActivityOutcome_CPDBAS_MultiCellCall_Details>
multisite active

>  <Note_CPDBAS>
Rat added v5a; Mutagenicity_SAL_CPDB added v5a; chemical added v5a

>  <ChemicalPage_URL>
http://potency.berkeley.edu/chempages/OXYMETHOLONE.html

$$$$



 18 18  0  0  0  0  0  0  0  0999 V2000
    5.5046   -3.3251    0.0000 S   0  0  0  0  0  0  0  0  0  0  0  0
    6.6502   -2.6545    0.0000 P   0  0  0  0  0  0  0  0  0  0  0  0
    5.9889   -1.5089    0.0000 O   0  0  0  0  0  0  0  0  0  0  0  0
    4.6570   -1.5089    0.0000 C   0  0  0  0  0  0  0  0  0  0  0  0
    3.9957   -2.6545    0.0000 C   0  0  0  0  0  0  0  0  0  0  0  0
    2.6638   -2.6545    0.0000 C   0  0  0  0  0  0  0  0  0  0  0  0
    1.9932   -1.5089    0.0000 C   0  0  0  0  0  0  0  0  0  0  0  0
    2.6638   -0.3539    0.0000 C   0  0  0  0  0  0  0  0  0  0  0  0
    3.9957   -0.3539    0.0000 C   0  0  0  0  0  0  0  0  0  0  0  0
    0.6613   -1.5089    0.0000 N   0  3  0  0  0  0  0  0  0  0  0  0
    0.0000   -2.6545    0.0000 O   0  0  0  0  0  0  0  0  0  0  0  0
    0.0000   -0.3539    0.0000 O   0  5  0  0  0  0  0  0  0  0  0  0
    7.8051   -1.9932    0.0000 O   0  0  0  0  0  0  0  0  0  0  0  0
    7.8051   -0.6613    0.0000 C   0  0  0  0  0  0  0  0  0  0  0  0
    8.9601    0.0000    0.0000 C   0  0  0  0  0  0  0  0  0  0  0  0
    7.3208   -3.8094    0.0000 O   0  0  0  0  0  0  0  0  0  0  0  0
    8.6527   -3.8094    0.0000 C   0  0  0  0  0  0  0  0  0  0  0  0
    9.3140   -2.6545    0.0000 C   0  0  0  0  0  0  0  0  0  0  0  0
  1  2  2  0  0  0  0
  2  3  1  0  0  0  0
  2 13  1  0  0  0  0
  2 16  1  0  0  0  0
  3  4  1  0  0  0  0
  4  5  2  0  0  0  0
  4  9  1  0  0  0  0
  5  6  1  0  0  0  0
  6  7  2  0  0  0  0
  7  8  1  0  0  0  0
  7 10  1  0  0  0  0
  8  9  2  0  0  0  0
 10 11  2  0  0  0  0
 10 12  1  0  0  0  0
 13 14  1  0  0  0  0
 14 15  1  0  0  0  0
 16 17  1  0  0  0  0
 17 18  1  0  0  0  0
M  END
>  <DSSTox_RID>
21100

>  <DSSTox_CID>
1100

>  <DSSTox_Generic_SID>
21100

>  <DSSTox_FileID>
1151_CPDBAS_v5d

>  <STRUCTURE_Formula>
C10H14NO5PS

>  <STRUCTURE_MolecularWeight>
291.2606

>  <STRUCTURE_ChemicalType>
defined organic

>  <STRUCTURE_TestedForm_DefinedOrganic>
parent

>  <STRUCTURE_Shown>
tested chemical

>  <TestSubstance_ChemicalName>
Parathion

>  <TestSubstance_CASRN>
56-38-2

>  <TestSubstance_Description>
single chemical compound

>  <STRUCTURE_ChemicalName_IUPAC>
O,O-diethyl O-(4-nitrophenyl) thiophosphate

>  <STRUCTURE_SMILES>
S=P(OC1=CC=C(C=C1)[N+](=O)[O-])(OCC)OCC

>  <STRUCTURE_Parent_SMILES>
S=P(OC1=CC=C(C=C1)[N+](=O)[O-])(OCC)OCC

>  <STRUCTURE_InChI>
InChI=1/C10H14NO5PS/c1-3-14-17(18,15-4-2)16-10-7-5-9(6-8-10)11(12)13/h5-8H,3-4H2,1-2H3

>  <STRUCTURE_InChIKey>
LCCNCVORNKJIRZ-UHFFFAOYAR

>  <StudyType>
Carcinogenicity

>  <Endpoint>
TD50; Tumor Target Sites

>  <Species>
rat; mouse

>  <ActivityOutcome_CPDBAS_Mutagenicity>
inactive

>  <ActivityScore_CPDBAS_Rat>
0

>  <TD50_Rat_Note>
no positive results

>  <TargetSites_Rat_Male>
no positive results

>  <TargetSites_Rat_Female>
no positive results

>  <ActivityOutcome_CPDBAS_Rat>
inactive

>  <ActivityScore_CPDBAS_Mouse>
0

>  <TD50_Mouse_Note>
no positive results

>  <TargetSites_Mouse_Male>
no positive results

>  <TargetSites_Mouse_Female>
no positive results

>  <ActivityOutcome_CPDBAS_Mouse>
inactive

>  <ActivityOutcome_CPDBAS_SingleCellCall>
inactive

>  <ActivityOutcome_CPDBAS_MultiCellCall>
inactive

>  <ActivityOutcome_CPDBAS_MultiCellCall_Details>
multisex inactive; multispecies inactive

>  <NTP_TechnicalReport>
TR 157

>  <ChemicalPage_URL>
http://potency.berkeley.edu/chempages/PARATHION.html

$$$$



 11 12  0  0  0  0  0  0  0  0999 V2000
    5.2520   -3.4558    0.0000 O   0  0  0  0  0  0  0  0  0  0  0  0
    4.5850   -2.3056    0.0000 C   0  0  3  0  0  0  0  0  0  0  0  0
    3.2562   -2.3056    0.0000 C   0  0  0  0  0  0  0  0  0  0  0  0
    2.3686   -3.2930    0.0000 C   0  0  0  0  0  0  0  0  0  0  0  0
    1.1502   -2.7520    0.0000 C   0  0  0  0  0  0  0  0  0  0  0  0
    0.0000   -3.4138    0.0000 O   0  0  0  0  0  0  0  0  0  0  0  0
    1.2920   -1.4285    0.0000 O   0  0  0  0  0  0  0  0  0  0  0  0
    2.5945   -1.1502    0.0000 C   0  0  0  0  0  0  0  0  0  0  0  0
    3.2562    0.0000    0.0000 C   0  0  0  0  0  0  0  0  0  0  0  0
    4.5850    0.0000    0.0000 C   0  0  0  0  0  0  0  0  0  0  0  0
    5.2520   -1.1502    0.0000 O   0  0  0  0  0  0  0  0  0  0  0  0
  1  2  1  0  0  0  0
  2  3  1  0  0  0  0
  2 11  1  0  0  0  0
  3  4  2  0  0  0  0
  3  8  1  0  0  0  0
  4  5  1  0  0  0  0
  5  6  2  0  0  0  0
  5  7  1  0  0  0  0
  7  8  1  0  0  0  0
  8  9  2  0  0  0  0
  9 10  1  0  0  0  0
 10 11  1  0  0  0  0
M  END
>  <DSSTox_RID>
21101

>  <DSSTox_CID>
1101

>  <DSSTox_Generic_SID>
21101

>  <DSSTox_FileID>
1152_CPDBAS_v5d

>  <STRUCTURE_Formula>
C7H6O4

>  <STRUCTURE_MolecularWeight>
154.1201

>  <STRUCTURE_ChemicalType>
defined organic

>  <STRUCTURE_TestedForm_DefinedOrganic>
parent

>  <STRUCTURE_Shown>
tested chemical

>  <TestSubstance_ChemicalName>
Patulin

>  <TestSubstance_CASRN>
149-29-1

>  <TestSubstance_Description>
single chemical compound

>  <ChemicalNote>
tautomers

>  <STRUCTURE_ChemicalName_IUPAC>
4-hydroxy-4H-furo[3,2-c]pyran-2(6H)-one

>  <STRUCTURE_SMILES>
OC1C2=CC(=O)OC2=CCO1

>  <STRUCTURE_Parent_SMILES>
OC1C2=CC(=O)OC2=CCO1

>  <STRUCTURE_InChI>
InChI=1/C7H6O4/c8-6-3-4-5(11-6)1-2-10-7(4)9/h1,3,7,9H,2H2

>  <STRUCTURE_InChIKey>
ZRWPUFFVAOMMNM-UHFFFAOYAU

>  <StudyType>
Carcinogenicity

>  <Endpoint>
TD50; Tumor Target Sites

>  <Species>
rat

>  <ActivityOutcome_CPDBAS_Mutagenicity>
inactive

>  <ActivityScore_CPDBAS_Rat>
0

>  <TD50_Rat_Note>
no positive results

>  <TargetSites_Rat_Female>
no positive results

>  <ActivityOutcome_CPDBAS_Rat>
inactive

>  <ActivityOutcome_CPDBAS_SingleCellCall>
inactive

>  <ChemicalPage_URL>
http://potency.berkeley.edu/chempages/PATULIN.html

$$$$



 13 13  0  0  0  0  0  0  0  0999 V2000
    1.9920    0.0000    0.0000 Cl  0  0  0  0  0  0  0  0  0  0  0  0
    2.6560   -1.1545    0.0000 C   0  0  0  0  0  0  0  0  0  0  0  0
    3.9900   -1.1545    0.0000 C   0  0  0  0  0  0  0  0  0  0  0  0
    4.6540   -2.3031    0.0000 C   0  0  0  0  0  0  0  0  0  0  0  0
    3.9900   -3.4576    0.0000 C   0  0  0  0  0  0  0  0  0  0  0  0
    2.6560   -3.4576    0.0000 C   0  0  0  0  0  0  0  0  0  0  0  0
    1.9920   -2.3031    0.0000 C   0  0  0  0  0  0  0  0  0  0  0  0
    0.6640   -2.3031    0.0000 O   0  0  0  0  0  0  0  0  0  0  0  0
    0.0000   -3.4576    0.0000 C   0  0  0  0  0  0  0  0  0  0  0  0
    1.9920   -4.6062    0.0000 Cl  0  0  0  0  0  0  0  0  0  0  0  0
    4.6540   -4.6062    0.0000 Cl  0  0  0  0  0  0  0  0  0  0  0  0
    5.9820   -2.3031    0.0000 Cl  0  0  0  0  0  0  0  0  0  0  0  0
    4.6540    0.0000    0.0000 Cl  0  0  0  0  0  0  0  0  0  0  0  0
  1  2  1  0  0  0  0
  2  3  2  0  0  0  0
  2  7  1  0  0  0  0
  3  4  1  0  0  0  0
  3 13  1  0  0  0  0
  4  5  2  0  0  0  0
  4 12  1  0  0  0  0
  5  6  1  0  0  0  0
  5 11  1  0  0  0  0
  6  7  2  0  0  0  0
  6 10  1  0  0  0  0
  7  8  1  0  0  0  0
  8  9  1  0  0  0  0
M  END
>  <DSSTox_RID>
21103

>  <DSSTox_CID>
1103

>  <DSSTox_Generic_SID>
21103

>  <DSSTox_FileID>
1154_CPDBAS_v5d

>  <STRUCTURE_Formula>
C7H3Cl5O

>  <STRUCTURE_MolecularWeight>
280.3631

>  <STRUCTURE_ChemicalType>
defined organic

>  <STRUCTURE_TestedForm_DefinedOrganic>
parent

>  <STRUCTURE_Shown>
tested chemical

>  <TestSubstance_ChemicalName>
Pentachloroanisole

>  <TestSubstance_CASRN>
1825-21-4

>  <TestSubstance_Description>
single chemical compound

>  <STRUCTURE_ChemicalName_IUPAC>
1,2,3,4,5-pentachloro-6-methoxybenzene

>  <STRUCTURE_SMILES>
ClC1=C(C(=C(C(=C1OC)Cl)Cl)Cl)Cl

>  <STRUCTURE_Parent_SMILES>
ClC1=C(C(=C(C(=C1OC)Cl)Cl)Cl)Cl

>  <STRUCTURE_InChI>
InChI=1/C7H3Cl5O/c1-13-7-5(11)3(9)2(8)4(10)6(7)12/h1H3

>  <STRUCTURE_InChIKey>
BBABSCYTNHOKOG-UHFFFAOYAT

>  <StudyType>
Carcinogenicity

>  <Endpoint>
TD50; Tumor Target Sites

>  <Species>
rat; mouse

>  <ActivityOutcome_CPDBAS_Mutagenicity>
active

>  <TD50_Rat_mg>
24.8

>  <TD50_Rat_mmol>
0.0885

>  <ActivityScore_CPDBAS_Rat>
37

>  <TargetSites_Rat_Male>
adrenal gland

>  <TargetSites_Rat_Female>
no positive results

>  <ActivityOutcome_CPDBAS_Rat>
active

>  <TD50_Mouse_mg>
68

>  <TD50_Mouse_mmol>
0.243

>  <ActivityScore_CPDBAS_Mouse>
35

>  <TargetSites_Mouse_Male>
adrenal gland; vascular system

>  <TargetSites_Mouse_Female>
no positive results

>  <ActivityOutcome_CPDBAS_Mouse>
active

>  <ActivityOutcome_CPDBAS_SingleCellCall>
active

>  <ActivityOutcome_CPDBAS_MultiCellCall>
active

>  <ActivityOutcome_CPDBAS_MultiCellCall_Details>
multisite active; multispecies active

>  <NTP_TechnicalReport>
TR 414

>  <ChemicalPage_URL>
http://potency.berkeley.edu/chempages/PENTACHLOROANISOLE.html

$$$$



  7  6  0  0  0  0  0  0  0  0999 V2000
    2.6608   -1.9956    0.0000 Cl  0  0  0  0  0  0  0  0  0  0  0  0
    1.3304   -1.9956    0.0000 C   0  0  0  0  0  0  0  0  0  0  0  0
    1.3304   -0.6652    0.0000 C   0  0  0  0  0  0  0  0  0  0  0  0
    0.1796    0.0000    0.0000 Cl  0  0  0  0  0  0  0  0  0  0  0  0
    2.4812    0.0000    0.0000 Cl  0  0  0  0  0  0  0  0  0  0  0  0
    1.3304   -3.3260    0.0000 Cl  0  0  0  0  0  0  0  0  0  0  0  0
    0.0000   -1.9956    0.0000 Cl  0  0  0  0  0  0  0  0  0  0  0  0
  1  2  1  0  0  0  0
  2  3  1  0  0  0  0
  2  6  1  0  0  0  0
  2  7  1  0  0  0  0
  3  4  1  0  0  0  0
  3  5  1  0  0  0  0
M  END
>  <DSSTox_RID>
21104

>  <DSSTox_CID>
1104

>  <DSSTox_Generic_SID>
21104

>  <DSSTox_FileID>
1155_CPDBAS_v5d

>  <STRUCTURE_Formula>
C2HCl5

>  <STRUCTURE_MolecularWeight>
202.2943

>  <STRUCTURE_ChemicalType>
defined organic

>  <STRUCTURE_TestedForm_DefinedOrganic>
parent

>  <STRUCTURE_Shown>
tested chemical

>  <TestSubstance_ChemicalName>
Pentachloroethane

>  <TestSubstance_CASRN>
76-01-7

>  <TestSubstance_Description>
single chemical compound

>  <STRUCTURE_ChemicalName_IUPAC>
1,1,1,2,2-pentachloroethane

>  <STRUCTURE_SMILES>
ClC(C(Cl)Cl)(Cl)Cl

>  <STRUCTURE_Parent_SMILES>
ClC(C(Cl)Cl)(Cl)Cl

>  <STRUCTURE_InChI>
InChI=1/C2HCl5/c3-1(4)2(5,6)7/h1H

>  <STRUCTURE_InChIKey>
BNIXVQGCZULYKV-UHFFFAOYAS

>  <StudyType>
Carcinogenicity

>  <Endpoint>
TD50; Tumor Target Sites

>  <Species>
rat; mouse

>  <ActivityOutcome_CPDBAS_Mutagenicity>
inactive

>  <ActivityScore_CPDBAS_Rat>
0

>  <TD50_Rat_Note>
no positive results

>  <TargetSites_Rat_Male>
no positive results

>  <TargetSites_Rat_Female>
no positive results

>  <ActivityOutcome_CPDBAS_Rat>
inactive

>  <TD50_Mouse_mg>
57.3

>  <TD50_Mouse_mmol>
0.283

>  <ActivityScore_CPDBAS_Mouse>
34

>  <TD50_Mouse_Note>
TD50 is harmonic mean of more than one positive test

>  <TargetSites_Mouse_Male>
liver

>  <TargetSites_Mouse_Female>
liver

>  <ActivityOutcome_CPDBAS_Mouse>
active

>  <ActivityOutcome_CPDBAS_SingleCellCall>
active

>  <ActivityOutcome_CPDBAS_MultiCellCall>
active

>  <ActivityOutcome_CPDBAS_MultiCellCall_Details>
multisex active

>  <NTP_TechnicalReport>
TR 232

>  <ChemicalPage_URL>
http://potency.berkeley.edu/chempages/PENTACHLOROETHANE.html

$$$$



 14 14  0  0  0  0  0  0  0  0999 V2000
    1.9924   -4.6070    0.0000 Cl  0  0  0  0  0  0  0  0  0  0  0  0
    2.6565   -3.4582    0.0000 C   0  0  0  0  0  0  0  0  0  0  0  0
    1.9924   -2.3035    0.0000 C   0  0  0  0  0  0  0  0  0  0  0  0
    2.6565   -1.1547    0.0000 C   0  0  0  0  0  0  0  0  0  0  0  0
    3.9907   -1.1547    0.0000 C   0  0  0  0  0  0  0  0  0  0  0  0
    4.6549   -2.3035    0.0000 C   0  0  0  0  0  0  0  0  0  0  0  0
    3.9907   -3.4582    0.0000 C   0  0  0  0  0  0  0  0  0  0  0  0
    4.6549   -4.6070    0.0000 Cl  0  0  0  0  0  0  0  0  0  0  0  0
    5.9831   -2.3035    0.0000 Cl  0  0  0  0  0  0  0  0  0  0  0  0
    4.6549    0.0000    0.0000 Cl  0  0  0  0  0  0  0  0  0  0  0  0
    1.9924    0.0000    0.0000 Cl  0  0  0  0  0  0  0  0  0  0  0  0
    0.6641   -2.3035    0.0000 N   0  3  0  0  0  0  0  0  0  0  0  0
    0.0000   -3.4582    0.0000 O   0  0  0  0  0  0  0  0  0  0  0  0
    0.0000   -1.1547    0.0000 O   0  5  0  0  0  0  0  0  0  0  0  0
  1  2  1  0  0  0  0
  2  3  2  0  0  0  0
  2  7  1  0  0  0  0
  3  4  1  0  0  0  0
  3 12  1  0  0  0  0
  4  5  2  0  0  0  0
  4 11  1  0  0  0  0
  5  6  1  0  0  0  0
  5 10  1  0  0  0  0
  6  7  2  0  0  0  0
  6  9  1  0  0  0  0
  7  8  1  0  0  0  0
 12 13  2  0  0  0  0
 12 14  1  0  0  0  0
M  END
>  <DSSTox_RID>
21105

>  <DSSTox_CID>
1105

>  <DSSTox_Generic_SID>
21105

>  <DSSTox_FileID>
1156_CPDBAS_v5d

>  <STRUCTURE_Formula>
C6Cl5NO2

>  <STRUCTURE_MolecularWeight>
295.3347

>  <STRUCTURE_ChemicalType>
defined organic

>  <STRUCTURE_TestedForm_DefinedOrganic>
parent

>  <STRUCTURE_Shown>
tested chemical

>  <TestSubstance_ChemicalName>
Pentachloronitrobenzene

>  <TestSubstance_CASRN>
82-68-8

>  <TestSubstance_Description>
single chemical compound

>  <STRUCTURE_ChemicalName_IUPAC>
1,2,3,4,5-pentachloro-6-nitrobenzene

>  <STRUCTURE_SMILES>
ClC1=C(C(=C(C(=C1Cl)Cl)Cl)Cl)[N+](=O)[O-]

>  <STRUCTURE_Parent_SMILES>
ClC1=C(C(=C(C(=C1Cl)Cl)Cl)Cl)[N+](=O)[O-]

>  <STRUCTURE_InChI>
InChI=1/C6Cl5NO2/c7-1-2(8)4(10)6(12(13)14)5(11)3(1)9

>  <STRUCTURE_InChIKey>
LKPLKUMXSAEKID-UHFFFAOYAW

>  <StudyType>
Carcinogenicity

>  <Endpoint>
TD50; Tumor Target Sites

>  <Species>
rat; mouse

>  <ActivityOutcome_CPDBAS_Mutagenicity>
inactive

>  <ActivityScore_CPDBAS_Rat>
0

>  <TD50_Rat_Note>
no positive results

>  <TargetSites_Rat_Male>
no positive results

>  <TargetSites_Rat_Female>
no positive results

>  <ActivityOutcome_CPDBAS_Rat>
inactive

>  <TD50_Mouse_mg>
71.1

>  <TD50_Mouse_mmol>
0.241

>  <ActivityScore_CPDBAS_Mouse>
35

>  <TargetSites_Mouse_Male>
liver

>  <TargetSites_Mouse_Female>
no positive results

>  <ActivityOutcome_CPDBAS_Mouse>
active

>  <ActivityOutcome_CPDBAS_SingleCellCall>
active

>  <NTP_TechnicalReport>
TR 325; final call in CPDB differs due to additional data

>  <ChemicalPage_URL>
http://potency.berkeley.edu/chempages/PENTACHLORONITROBENZENE.html

$$$$



 12 12  0  0  0  0  0  0  0  0999 V2000
    0.0000   -2.3036    0.0000 O   0  0  0  0  0  0  0  0  0  0  0  0
    1.3300   -2.3036    0.0000 C   0  0  0  0  0  0  0  0  0  0  0  0
    1.9950   -1.1491    0.0000 C   0  0  0  0  0  0  0  0  0  0  0  0
    3.3250   -1.1491    0.0000 C   0  0  0  0  0  0  0  0  0  0  0  0
    3.9901   -2.3036    0.0000 C   0  0  0  0  0  0  0  0  0  0  0  0
    3.3250   -3.4581    0.0000 C   0  0  0  0  0  0  0  0  0  0  0  0
    1.9950   -3.4581    0.0000 C   0  0  0  0  0  0  0  0  0  0  0  0
    1.3300   -4.6072    0.0000 Cl  0  0  0  0  0  0  0  0  0  0  0  0
    3.9901   -4.6072    0.0000 Cl  0  0  0  0  0  0  0  0  0  0  0  0
    5.3201   -2.3036    0.0000 Cl  0  0  0  0  0  0  0  0  0  0  0  0
    3.9901    0.0000    0.0000 Cl  0  0  0  0  0  0  0  0  0  0  0  0
    1.3300    0.0000    0.0000 Cl  0  0  0  0  0  0  0  0  0  0  0  0
  1  2  1  0  0  0  0
  2  3  2  0  0  0  0
  2  7  1  0  0  0  0
  3  4  1  0  0  0  0
  3 12  1  0  0  0  0
  4  5  2  0  0  0  0
  4 11  1  0  0  0  0
  5  6  1  0  0  0  0
  5 10  1  0  0  0  0
  6  7  2  0  0  0  0
  6  9  1  0  0  0  0
  7  8  1  0  0  0  0
M  END
>  <DSSTox_RID>
21106

>  <DSSTox_CID>
1106

>  <DSSTox_Generic_SID>
21106

>  <DSSTox_FileID>
1157_CPDBAS_v5d

>  <STRUCTURE_Formula>
C6HCl5O

>  <STRUCTURE_MolecularWeight>
266.3365

>  <STRUCTURE_ChemicalType>
defined organic

>  <STRUCTURE_TestedForm_DefinedOrganic>
parent

>  <STRUCTURE_Shown>
tested chemical

>  <TestSubstance_ChemicalName>
2,3,4,5,6-Pentachlorophenol

>  <TestSubstance_CASRN>
87-86-5

>  <TestSubstance_Description>
single chemical compound

>  <STRUCTURE_ChemicalName_IUPAC>
pentachlorophenol

>  <STRUCTURE_SMILES>
OC1=C(C(=C(C(=C1Cl)Cl)Cl)Cl)Cl

>  <STRUCTURE_Parent_SMILES>
OC1=C(C(=C(C(=C1Cl)Cl)Cl)Cl)Cl

>  <STRUCTURE_InChI>
InChI=1/C6HCl5O/c7-1-2(8)4(10)6(12)5(11)3(1)9/h12H

>  <STRUCTURE_InChIKey>
IZUPBVBPLAPZRR-UHFFFAOYAG

>  <StudyType>
Carcinogenicity

>  <Endpoint>
TD50; Tumor Target Sites

>  <Species>
rat; mouse

>  <ActivityOutcome_CPDBAS_Mutagenicity>
inactive

>  <TD50_Rat_mg>
59

>  <TD50_Rat_mmol>
0.222

>  <ActivityScore_CPDBAS_Rat>
32

>  <TargetSites_Rat_Male>
nasal cavity; peritoneal cavity

>  <TargetSites_Rat_Female>
no positive results

>  <ActivityOutcome_CPDBAS_Rat>
active

>  <ActivityScore_CPDBAS_Mouse>
0

>  <TD50_Mouse_Note>
no positive results

>  <TargetSites_Mouse_Female>
no positive results

>  <ActivityOutcome_CPDBAS_Mouse>
inactive

>  <ActivityOutcome_CPDBAS_SingleCellCall>
active

>  <ActivityOutcome_CPDBAS_MultiCellCall>
active

>  <ActivityOutcome_CPDBAS_MultiCellCall_Details>
multisite active

>  <Note_CPDBAS>
Rat added v5a

>  <ChemicalPage_URL>
http://potency.berkeley.edu/chempages/2,3,4,5,6-PENTACHLOROPHENOL.html

$$$$



 12 12  0  0  0  0  0  0  0  0999 V2000
    0.0000   -2.3036    0.0000 O   0  0  0  0  0  0  0  0  0  0  0  0
    1.3300   -2.3036    0.0000 C   0  0  0  0  0  0  0  0  0  0  0  0
    1.9950   -1.1491    0.0000 C   0  0  0  0  0  0  0  0  0  0  0  0
    3.3250   -1.1491    0.0000 C   0  0  0  0  0  0  0  0  0  0  0  0
    3.9901   -2.3036    0.0000 C   0  0  0  0  0  0  0  0  0  0  0  0
    3.3250   -3.4581    0.0000 C   0  0  0  0  0  0  0  0  0  0  0  0
    1.9950   -3.4581    0.0000 C   0  0  0  0  0  0  0  0  0  0  0  0
    1.3300   -4.6072    0.0000 Cl  0  0  0  0  0  0  0  0  0  0  0  0
    3.9901   -4.6072    0.0000 Cl  0  0  0  0  0  0  0  0  0  0  0  0
    5.3201   -2.3036    0.0000 Cl  0  0  0  0  0  0  0  0  0  0  0  0
    3.9901    0.0000    0.0000 Cl  0  0  0  0  0  0  0  0  0  0  0  0
    1.3300    0.0000    0.0000 Cl  0  0  0  0  0  0  0  0  0  0  0  0
  1  2  1  0  0  0  0
  2  3  2  0  0  0  0
  2  7  1  0  0  0  0
  3  4  1  0  0  0  0
  3 12  1  0  0  0  0
  4  5  2  0  0  0  0
  4 11  1  0  0  0  0
  5  6  1  0  0  0  0
  5 10  1  0  0  0  0
  6  7  2  0  0  0  0
  6  9  1  0  0  0  0
  7  8  1  0  0  0  0
M  END
>  <DSSTox_RID>
21107

>  <DSSTox_CID>
1106

>  <DSSTox_Generic_SID>
21107

>  <DSSTox_FileID>
1158_CPDBAS_v5d

>  <STRUCTURE_Formula>
C6HCl5O

>  <STRUCTURE_MolecularWeight>
266.3365

>  <STRUCTURE_ChemicalType>
defined organic

>  <STRUCTURE_TestedForm_DefinedOrganic>
parent

>  <STRUCTURE_Shown>
tested chemical

>  <TestSubstance_ChemicalName>
2,3,4,5,6-Pentachlorophenol (Dowicide EC-7)

>  <TestSubstance_CASRN>
87-86-5

>  <TestSubstance_Description>
single chemical compound

>  <ChemicalNote>
may be impure formulation

>  <STRUCTURE_ChemicalName_IUPAC>
pentachlorophenol

>  <STRUCTURE_SMILES>
OC1=C(C(=C(C(=C1Cl)Cl)Cl)Cl)Cl

>  <STRUCTURE_Parent_SMILES>
OC1=C(C(=C(C(=C1Cl)Cl)Cl)Cl)Cl

>  <STRUCTURE_InChI>
InChI=1/C6HCl5O/c7-1-2(8)4(10)6(12)5(11)3(1)9/h12H

>  <STRUCTURE_InChIKey>
IZUPBVBPLAPZRR-UHFFFAOYAG

>  <StudyType>
Carcinogenicity

>  <Endpoint>
TD50; Tumor Target Sites

>  <Species>
rat; mouse

>  <ActivityOutcome_CPDBAS_Mutagenicity>
inactive

>  <ActivityScore_CPDBAS_Rat>
0

>  <TD50_Rat_Note>
no positive results

>  <TargetSites_Rat_Male>
no positive results

>  <TargetSites_Rat_Female>
no positive results

>  <ActivityOutcome_CPDBAS_Rat>
inactive

>  <TD50_Mouse_mg>
24

>  <TD50_Mouse_mmol>
0.0901

>  <ActivityScore_CPDBAS_Mouse>
40

>  <TD50_Mouse_Note>
TD50 is harmonic mean of more than one positive test

>  <TargetSites_Mouse_Male>
adrenal gland; liver

>  <TargetSites_Mouse_Female>
adrenal gland; liver; vascular system

>  <ActivityOutcome_CPDBAS_Mouse>
active

>  <ActivityOutcome_CPDBAS_SingleCellCall>
active

>  <ActivityOutcome_CPDBAS_MultiCellCall>
active

>  <ActivityOutcome_CPDBAS_MultiCellCall_Details>
multisite active; multisex active

>  <NTP_TechnicalReport>
TR 349

>  <ChemicalPage_URL>
http://potency.berkeley.edu/chempages/2,3,4,5,6-PENTACHLOROPHENOL.html

$$$$



 12 12  0  0  0  0  0  0  0  0999 V2000
    0.0000   -2.3036    0.0000 O   0  0  0  0  0  0  0  0  0  0  0  0
    1.3300   -2.3036    0.0000 C   0  0  0  0  0  0  0  0  0  0  0  0
    1.9950   -1.1491    0.0000 C   0  0  0  0  0  0  0  0  0  0  0  0
    3.3250   -1.1491    0.0000 C   0  0  0  0  0  0  0  0  0  0  0  0
    3.9901   -2.3036    0.0000 C   0  0  0  0  0  0  0  0  0  0  0  0
    3.3250   -3.4581    0.0000 C   0  0  0  0  0  0  0  0  0  0  0  0
    1.9950   -3.4581    0.0000 C   0  0  0  0  0  0  0  0  0  0  0  0
    1.3300   -4.6072    0.0000 Cl  0  0  0  0  0  0  0  0  0  0  0  0
    3.9901   -4.6072    0.0000 Cl  0  0  0  0  0  0  0  0  0  0  0  0
    5.3201   -2.3036    0.0000 Cl  0  0  0  0  0  0  0  0  0  0  0  0
    3.9901    0.0000    0.0000 Cl  0  0  0  0  0  0  0  0  0  0  0  0
    1.3300    0.0000    0.0000 Cl  0  0  0  0  0  0  0  0  0  0  0  0
  1  2  1  0  0  0  0
  2  3  2  0  0  0  0
  2  7  1  0  0  0  0
  3  4  1  0  0  0  0
  3 12  1  0  0  0  0
  4  5  2  0  0  0  0
  4 11  1  0  0  0  0
  5  6  1  0  0  0  0
  5 10  1  0  0  0  0
  6  7  2  0  0  0  0
  6  9  1  0  0  0  0
  7  8  1  0  0  0  0
M  END
>  <DSSTox_RID>
21108

>  <DSSTox_CID>
1106

>  <DSSTox_Generic_SID>
21108

>  <DSSTox_FileID>
1159_CPDBAS_v5d

>  <STRUCTURE_Formula>
C6HCl5O

>  <STRUCTURE_MolecularWeight>
266.3365

>  <STRUCTURE_ChemicalType>
defined organic

>  <STRUCTURE_TestedForm_DefinedOrganic>
parent

>  <STRUCTURE_Shown>
tested chemical

>  <TestSubstance_ChemicalName>
2,3,4,5,6-Pentachlorophenol, technical grade

>  <TestSubstance_CASRN>
87-86-5

>  <TestSubstance_Description>
single chemical compound

>  <ChemicalNote>
technical grade generally impure formulation

>  <STRUCTURE_ChemicalName_IUPAC>
pentachlorophenol

>  <STRUCTURE_SMILES>
OC1=C(C(=C(C(=C1Cl)Cl)Cl)Cl)Cl

>  <STRUCTURE_Parent_SMILES>
OC1=C(C(=C(C(=C1Cl)Cl)Cl)Cl)Cl

>  <STRUCTURE_InChI>
InChI=1/C6HCl5O/c7-1-2(8)4(10)6(12)5(11)3(1)9/h12H

>  <STRUCTURE_InChIKey>
IZUPBVBPLAPZRR-UHFFFAOYAG

>  <StudyType>
Carcinogenicity

>  <Endpoint>
TD50; Tumor Target Sites

>  <Species>
rat; mouse

>  <ActivityOutcome_CPDBAS_Mutagenicity>
inactive

>  <TD50_Rat_mg>
13.1

>  <TD50_Rat_mmol>
0.0492

>  <ActivityScore_CPDBAS_Rat>
39

>  <TargetSites_Rat_Male>
no positive results

>  <TargetSites_Rat_Female>
liver

>  <ActivityOutcome_CPDBAS_Rat>
active

>  <TD50_Mouse_mg>
23

>  <TD50_Mouse_mmol>
0.0864

>  <ActivityScore_CPDBAS_Mouse>
40

>  <TD50_Mouse_Note>
TD50 is harmonic mean of more than one positive test

>  <TargetSites_Mouse_Male>
adrenal gland; liver

>  <TargetSites_Mouse_Female>
liver; vascular system

>  <ActivityOutcome_CPDBAS_Mouse>
active

>  <ActivityOutcome_CPDBAS_SingleCellCall>
active

>  <ActivityOutcome_CPDBAS_MultiCellCall>
active

>  <ActivityOutcome_CPDBAS_MultiCellCall_Details>
multisite active; multisex active; multispecies active

>  <NTP_TechnicalReport>
TR 350

>  <ChemicalPage_URL>
http://potency.berkeley.edu/chempages/2,3,4,5,6-PENTACHLOROPHENOL,%20TECHNICAL%20GRADE.html

$$$$



 10  9  0  0  0  0  0  0  0  0999 V2000
    9.2146   -1.3361    0.0000 C   0  0  0  0  0  0  0  0  0  0  0  0
    8.0628   -1.9996    0.0000 C   0  0  0  0  0  0  0  0  0  0  0  0
    6.9109   -1.3361    0.0000 C   0  0  0  0  0  0  0  0  0  0  0  0
    5.7591   -1.9996    0.0000 C   0  0  0  0  0  0  0  0  0  0  0  0
    4.6073   -1.3361    0.0000 C   0  0  0  0  0  0  0  0  0  0  0  0
    3.4555   -1.9996    0.0000 N   0  0  0  0  0  0  0  0  0  0  0  0
    2.3036   -1.3361    0.0000 N   0  0  0  0  0  0  0  0  0  0  0  0
    1.1518   -1.9996    0.0000 C   0  0  0  0  0  0  0  0  0  0  0  0
    0.0000   -1.3361    0.0000 O   0  0  0  0  0  0  0  0  0  0  0  0
    2.3036    0.0000    0.0000 C   0  0  0  0  0  0  0  0  0  0  0  0
  1  2  1  0  0  0  0
  2  3  1  0  0  0  0
  3  4  1  0  0  0  0
  4  5  1  0  0  0  0
  5  6  2  0  0  0  0
  6  7  1  0  0  0  0
  7  8  1  0  0  0  0
  7 10  1  0  0  0  0
  8  9  2  0  0  0  0
M  END
>  <DSSTox_RID>
21110

>  <DSSTox_CID>
1110

>  <DSSTox_Generic_SID>
21110

>  <DSSTox_FileID>
1161_CPDBAS_v5d

>  <STRUCTURE_Formula>
C7H14N2O

>  <STRUCTURE_MolecularWeight>
142.2004

>  <STRUCTURE_ChemicalType>
defined organic

>  <STRUCTURE_TestedForm_DefinedOrganic>
parent

>  <STRUCTURE_Shown>
tested chemical

>  <TestSubstance_ChemicalName>
Pentanal methylformylhydrazone

>  <TestSubstance_CASRN>
57590-20-2

>  <TestSubstance_Description>
single chemical compound

>  <ChemicalNote>
stereochem

>  <STRUCTURE_ChemicalName_IUPAC>
N-methyl-N'-[(1E)-pentylidene]formic hydrazide

>  <STRUCTURE_SMILES>
CCCC/C=N/N(C=O)C

>  <STRUCTURE_Parent_SMILES>
CCCC/C=N/N(C=O)C

>  <STRUCTURE_InChI>
InChI=1/C7H14N2O/c1-3-4-5-6-8-9(2)7-10/h6-7H,3-5H2,1-2H3/b8-6+

>  <STRUCTURE_InChIKey>
IHTUGUQGWPOOJG-SOFGYWHQBC

>  <StudyType>
Carcinogenicity

>  <Endpoint>
TD50; Tumor Target Sites

>  <Species>
mouse

>  <TD50_Mouse_mg>
3.42

>  <TD50_Mouse_mmol>
0.0241

>  <ActivityScore_CPDBAS_Mouse>
47

>  <TD50_Mouse_Note>
TD50 is harmonic mean of more than one positive test

>  <TargetSites_Mouse_Male>
liver; lung; preputial gland

>  <TargetSites_Mouse_Female>
liver; lung

>  <ActivityOutcome_CPDBAS_Mouse>
active

>  <ActivityOutcome_CPDBAS_SingleCellCall>
active

>  <ActivityOutcome_CPDBAS_MultiCellCall>
active

>  <ActivityOutcome_CPDBAS_MultiCellCall_Details>
multisite active; multisex active

>  <ChemicalPage_URL>
http://potency.berkeley.edu/chempages/PENTANAL%20METHYLFORMYLHYDRAZONE.html

$$$$



 14 13  0  0  0  0  0  0  0  0999 V2000
    6.6514   -3.4587    0.0000 C   0  0  0  0  0  0  0  0  0  0  0  0
    5.9863   -4.6094    0.0000 C   0  0  0  0  0  0  0  0  0  0  0  0
    4.6560   -4.6094    0.0000 C   0  0  0  0  0  0  0  0  0  0  0  0
    3.9909   -5.7601    0.0000 C   0  0  0  0  0  0  0  0  0  0  0  0
    2.6606   -5.7601    0.0000 C   0  0  0  0  0  0  0  0  0  0  0  0
    1.9954   -4.6094    0.0000 N   0  0  0  0  0  0  0  0  0  0  0  0
    0.6651   -4.6094    0.0000 N   0  0  0  0  0  0  0  0  0  0  0  0
    0.0000   -3.4587    0.0000 O   0  0  0  0  0  0  0  0  0  0  0  0
    2.6606   -3.4587    0.0000 C   0  0  0  0  0  0  0  0  0  0  0  0
    3.9909   -3.4587    0.0000 N   0  0  0  0  0  0  0  0  0  0  0  0
    1.9954   -2.3014    0.0000 N   0  0  0  0  0  0  0  0  0  0  0  0
    2.6606   -1.1507    0.0000 N   0  3  0  0  0  0  0  0  0  0  0  0
    1.9954    0.0000    0.0000 O   0  5  0  0  0  0  0  0  0  0  0  0
    3.9909   -1.1507    0.0000 O   0  0  0  0  0  0  0  0  0  0  0  0
  1  2  1  0  0  0  0
  2  3  1  0  0  0  0
  3  4  1  0  0  0  0
  4  5  1  0  0  0  0
  5  6  1  0  0  0  0
  6  7  1  0  0  0  0
  6  9  1  0  0  0  0
  7  8  2  0  0  0  0
  9 10  2  0  0  0  0
  9 11  1  0  0  0  0
 11 12  1  0  0  0  0
 12 13  1  0  0  0  0
 12 14  2  0  0  0  0
M  END
>  <DSSTox_RID>
21111

>  <DSSTox_CID>
1111

>  <DSSTox_Generic_SID>
21111

>  <DSSTox_FileID>
1162_CPDBAS_v5d

>  <STRUCTURE_Formula>
C6H13N5O3

>  <STRUCTURE_MolecularWeight>
203.2004

>  <STRUCTURE_ChemicalType>
defined organic

>  <STRUCTURE_TestedForm_DefinedOrganic>
parent

>  <STRUCTURE_Shown>
tested chemical

>  <TestSubstance_ChemicalName>
N-Pentyl-N'-nitro-N-nitrosoguanidine

>  <TestSubstance_CASRN>
13010-10-1

>  <TestSubstance_Description>
single chemical compound

>  <STRUCTURE_ChemicalName_IUPAC>
3-nitro-1-nitroso-1-pentylguanidine

>  <STRUCTURE_SMILES>
CCCCCN(N=O)C(=N)N[N+]([O-])=O

>  <STRUCTURE_Parent_SMILES>
CCCCCN(N=O)C(=N)N[N+]([O-])=O

>  <STRUCTURE_InChI>
InChI=1/C6H13N5O3/c1-2-3-4-5-10(9-12)6(7)8-11(13)14/h2-5H2,1H3,(H2,7,8)/f/h7-8H

>  <STRUCTURE_InChIKey>
OKMNBMCHWAWZBL-ZKXRSSAFCR

>  <StudyType>
Carcinogenicity

>  <Endpoint>
TD50; Tumor Target Sites

>  <Species>
rat

>  <ActivityOutcome_CPDBAS_Mutagenicity>
active

>  <ActivityScore_CPDBAS_Rat>
0

>  <TD50_Rat_Note>
no positive results

>  <TargetSites_Rat_Male>
no positive results

>  <ActivityOutcome_CPDBAS_Rat>
inactive

>  <ActivityOutcome_CPDBAS_SingleCellCall>
inactive

>  <ChemicalPage_URL>
http://potency.berkeley.edu/chempages/N-PENTYL-N'-NITRO-N-NITROSOGUANIDINE.html

$$$$



 28 30  0  0  1  0  0  0  0  0999 V2000
    2.4664   -0.7059    0.0000 O   0  0  0  0  0  0  0  0  0  0  0  0
    1.5197   -3.8864    0.0000 O   0  0  0  0  0  0  0  0  0  0  0  0
    4.9659   -1.7937    0.0000 C   0  0  1  0  0  0  0  0  0  0  0  0
    3.7037   -1.0712    0.0000 C   0  0  0  0  0  0  0  0  0  0  0  0
    3.7037   -3.9694    0.0000 O   0  0  0  0  0  0  0  0  0  0  0  0
    2.4497   -1.7937    0.0000 C   0  0  3  0  0  0  0  0  0  0  0  0
    2.4497   -3.2470    0.0000 C   0  0  0  0  0  0  0  0  0  0  0  0
    7.4738   -1.7937    0.0000 C   0  0  0  0  0  0  0  0  0  0  0  0
    7.4738   -3.2470    0.0000 O   0  0  0  0  0  0  0  0  0  0  0  0
    6.2199   -1.0712    0.0000 C   0  0  1  0  0  0  0  0  0  0  0  0
    6.3943   -3.9694    0.0000 C   0  0  0  0  0  0  0  0  0  0  0  0
    2.7902   -6.0206    0.0000 C   0  0  0  0  0  0  0  0  0  0  0  0
    3.6539   -4.8580    0.0000 C   0  0  2  0  0  0  0  0  0  0  0  0
    3.6373   -7.1998    0.0000 C   0  0  0  0  0  0  0  0  0  0  0  0
    5.0324   -5.3147    0.0000 C   0  0  0  0  0  0  0  0  0  0  0  0
    5.0158   -6.7679    0.0000 N   0  0  0  0  0  0  0  0  0  0  0  0
    6.4109   -4.8746    0.0000 C   0  0  0  0  0  0  0  0  0  0  0  0
    7.2579   -6.0621    0.0000 C   0  0  0  0  0  0  0  0  0  0  0  0
    6.3943   -7.2247    0.0000 C   0  0  0  0  0  0  0  0  0  0  0  0
    5.0324   -4.3016    0.0000 O   0  0  0  0  0  0  0  0  0  0  0  0
    5.0158   -8.2544    0.0000 C   0  0  0  0  0  0  0  0  0  0  0  0
    8.3042   -1.3702    0.0000 O   0  0  0  0  0  0  0  0  0  0  0  0
    1.0879   -1.1875    0.0000 C   0  0  1  0  0  0  0  0  0  0  0  0
    0.0000   -1.7522    0.0000 C   0  0  0  0  0  0  0  0  0  0  0  0
    4.0525   -2.7653    0.0000 H   0  0  0  0  0  0  0  0  0  0  0  0
    5.8545   -2.6241    0.0000 C   0  0  0  0  0  0  0  0  0  0  0  0
    7.1665   -0.2159    0.0000 C   0  0  0  0  0  0  0  0  0  0  0  0
    5.3147    0.0000    0.0000 O   0  0  0  0  0  0  0  0  0  0  0  0
  1  6  1  0  0  0  0
  1 23  1  0  0  0  0
  2  7  2  0  0  0  0
  3  4  1  0  0  0  0
  3 10  1  0  0  0  0
  3 25  1  1  0  0  0
  3 26  1  6  0  0  0
  4  6  1  0  0  0  0
  5  7  1  0  0  0  0
 13  5  1  1  0  0  0
  6  7  1  0  0  0  0
  6 23  1  0  0  0  0
  8  9  1  0  0  0  0
  8 10  1  0  0  0  0
  8 22  2  0  0  0  0
  9 11  1  0  0  0  0
 10 27  1  6  0  0  0
 10 28  1  1  0  0  0
 11 17  1  0  0  0  0
 12 13  1  0  0  0  0
 12 14  1  0  0  0  0
 13 15  1  0  0  0  0
 14 16  1  0  0  0  0
 15 17  1  0  0  0  0
 15 20  2  0  0  0  0
 16 19  1  0  0  0  0
 16 21  1  0  0  0  0
 17 18  2  0  0  0  0
 18 19  1  0  0  0  0
 23 24  1  1  0  0  0
M  END
>  <DSSTox_RID>
21115

>  <DSSTox_CID>
1115

>  <DSSTox_Generic_SID>
21115

>  <DSSTox_FileID>
1166_CPDBAS_v5d

>  <STRUCTURE_Formula>
C19H27NO7

>  <STRUCTURE_MolecularWeight>
381.4248

>  <STRUCTURE_ChemicalType>
defined organic

>  <STRUCTURE_TestedForm_DefinedOrganic>
parent

>  <STRUCTURE_Shown>
tested chemical

>  <TestSubstance_ChemicalName>
Petasitenine

>  <TestSubstance_CASRN>
60102-37-6

>  <TestSubstance_Description>
single chemical compound

>  <ChemicalNote>
stereochem, tautomers

>  <STRUCTURE_ChemicalName_IUPAC>
(1R,3'R,6R,7R,11Z)-7-hydroxy-3',6,7,14-tetramethyl-8H,17H-spiro[2,9-dioxa-14-azabicyclo[9.5.1]heptadec-11-ene-4,2'-oxirane]-3,8,17-trione

>  <STRUCTURE_SMILES>
CN1CC[C@H]2OC(=O)C3(C[C@@H](C)[C@@](C)(O)C(=O)OC\C(=C\C1)C2=O)O[C@@H]3C

>  <STRUCTURE_Parent_SMILES>
CN1CC[C@H]2OC(=O)C3(C[C@@H](C)[C@@](C)(O)C(=O)OC\C(=C\C1)C2=O)O[C@@H]3C

>  <STRUCTURE_InChI>
InChI=1/C19H27NO7/c1-11-9-19(12(2)27-19)17(23)26-14-6-8-20(4)7-5-13(15(14)21)10-25-16(22)18(11,3)24/h5,11-12,14,24H,6-10H2,1-4H3/b13-5-/t11-,12-,14-,18-,19?/m1/s1

>  <STRUCTURE_InChIKey>
CZQLULNMKQAIQL-FOUXODHOBZ

>  <StudyType>
Carcinogenicity

>  <Endpoint>
TD50; Tumor Target Sites

>  <Species>
rat

>  <TD50_Rat_mg>
0.922

>  <TD50_Rat_mmol>
0.00242

>  <ActivityScore_CPDBAS_Rat>
53

>  <TD50_Rat_Note>
TD50 is harmonic mean of more than one positive test

>  <TargetSites_Rat_Male>
liver; vascular system

>  <TargetSites_Rat_Female>
liver; vascular system

>  <ActivityOutcome_CPDBAS_Rat>
active

>  <ActivityOutcome_CPDBAS_SingleCellCall>
active

>  <ActivityOutcome_CPDBAS_MultiCellCall>
active

>  <ActivityOutcome_CPDBAS_MultiCellCall_Details>
multisite active; multisex active

>  <ChemicalPage_URL>
http://potency.berkeley.edu/chempages/PETASITENINE.html

$$$$



 13 13  0  0  0  0  0  0  0  0999 V2000
    9.2089    0.0000    0.0000 C   0  0  0  0  0  0  0  0  0  0  0  0
    8.0578   -0.6630    0.0000 C   0  0  0  0  0  0  0  0  0  0  0  0
    8.0578   -1.9983    0.0000 O   0  0  0  0  0  0  0  0  0  0  0  0
    6.9067    0.0000    0.0000 N   0  0  0  0  0  0  0  0  0  0  0  0
    5.7556   -0.6630    0.0000 C   0  0  0  0  0  0  0  0  0  0  0  0
    5.7556   -1.9983    0.0000 C   0  0  0  0  0  0  0  0  0  0  0  0
    4.6044   -2.6614    0.0000 C   0  0  0  0  0  0  0  0  0  0  0  0
    3.4533   -1.9983    0.0000 C   0  0  0  0  0  0  0  0  0  0  0  0
    3.4533   -0.6630    0.0000 C   0  0  0  0  0  0  0  0  0  0  0  0
    4.6044    0.0000    0.0000 C   0  0  0  0  0  0  0  0  0  0  0  0
    2.3022   -2.6614    0.0000 O   0  0  0  0  0  0  0  0  0  0  0  0
    1.1511   -1.9983    0.0000 C   0  0  0  0  0  0  0  0  0  0  0  0
    0.0000   -2.6614    0.0000 C   0  0  0  0  0  0  0  0  0  0  0  0
  1  2  1  0  0  0  0
  2  3  2  0  0  0  0
  2  4  1  0  0  0  0
  4  5  1  0  0  0  0
  5  6  2  0  0  0  0
  5 10  1  0  0  0  0
  6  7  1  0  0  0  0
  7  8  2  0  0  0  0
  8  9  1  0  0  0  0
  8 11  1  0  0  0  0
  9 10  2  0  0  0  0
 11 12  1  0  0  0  0
 12 13  1  0  0  0  0
M  END
>  <DSSTox_RID>
21116

>  <DSSTox_CID>
1116

>  <DSSTox_Generic_SID>
21116

>  <DSSTox_FileID>
1167_CPDBAS_v5d

>  <STRUCTURE_Formula>
C10H13NO2

>  <STRUCTURE_MolecularWeight>
179.2157

>  <STRUCTURE_ChemicalType>
defined organic

>  <STRUCTURE_TestedForm_DefinedOrganic>
parent

>  <STRUCTURE_Shown>
tested chemical

>  <TestSubstance_ChemicalName>
Phenacetin

>  <TestSubstance_CASRN>
62-44-2

>  <TestSubstance_Description>
single chemical compound

>  <STRUCTURE_ChemicalName_IUPAC>
N-[4-(ethyloxy)phenyl]acetamide

>  <STRUCTURE_SMILES>
CC(=O)NC1=CC=C(C=C1)OCC

>  <STRUCTURE_Parent_SMILES>
CC(=O)NC1=CC=C(C=C1)OCC

>  <STRUCTURE_InChI>
InChI=1/C10H13NO2/c1-3-13-10-6-4-9(5-7-10)11-8(2)12/h4-7H,3H2,1-2H3,(H,11,12)/f/h11H

>  <STRUCTURE_InChIKey>
CPJSUEIXXCENMM-WXRBYKJCCO

>  <StudyType>
Carcinogenicity

>  <Endpoint>
TD50; Tumor Target Sites

>  <Species>
rat; mouse

>  <ActivityOutcome_CPDBAS_Mutagenicity>
active

>  <TD50_Rat_mg>
1250

>  <TD50_Rat_mmol>
6.97

>  <ActivityScore_CPDBAS_Rat>
17

>  <TD50_Rat_Note>
TD50 is harmonic mean of more than one positive test

>  <TargetSites_Rat_Male>
kidney; nasal cavity; stomach; urinary bladder

>  <TargetSites_Rat_Female>
ear Zymbals gland; mammary gland; nasal cavity; urinary bladder

>  <ActivityOutcome_CPDBAS_Rat>
active

>  <TD50_Mouse_mg>
2140

>  <TD50_Mouse_mmol>
11.9

>  <ActivityScore_CPDBAS_Mouse>
16

>  <TD50_Mouse_Note>
TD50 is harmonic mean of more than one positive test; greater than ten-fold variation among TD50 values for positive results

>  <TargetSites_Mouse_Male>
kidney

>  <TargetSites_Mouse_Female>
urinary bladder

>  <ActivityOutcome_CPDBAS_Mouse>
active

>  <ActivityOutcome_CPDBAS_SingleCellCall>
active

>  <ActivityOutcome_CPDBAS_MultiCellCall>
active

>  <ActivityOutcome_CPDBAS_MultiCellCall_Details>
multisite active; multisex active; multispecies active

>  <ChemicalPage_URL>
http://potency.berkeley.edu/chempages/PHENACETIN.html

$$$$



 14 15  0  0  0  0  0  0  0  0999 V2000
    4.8193   -4.5221    0.0000 C   0  0  0  0  0  0  0  0  0  0  0  0
    4.8917   -3.1959    0.0000 N   0  0  0  0  0  0  0  0  0  0  0  0
    3.8554   -2.3553    0.0000 N   0  0  0  0  0  0  0  0  0  0  0  0
    2.5727   -2.7031    0.0000 C   0  0  0  0  0  0  0  0  0  0  0  0
    2.2248   -3.9859    0.0000 C   0  0  0  0  0  0  0  0  0  0  0  0
    0.9421   -4.3265    0.0000 C   0  0  0  0  0  0  0  0  0  0  0  0
    0.0000   -3.3916    0.0000 C   0  0  0  0  0  0  0  0  0  0  0  0
    0.3479   -2.1016    0.0000 C   0  0  0  0  0  0  0  0  0  0  0  0
    1.6306   -1.7610    0.0000 C   0  0  0  0  0  0  0  0  0  0  0  0
    4.3337   -1.1160    0.0000 C   0  0  0  0  0  0  0  0  0  0  0  0
    3.6090    0.0000    0.0000 O   0  0  0  0  0  0  0  0  0  0  0  0
    5.6599   -1.1813    0.0000 C   0  0  0  0  0  0  0  0  0  0  0  0
    6.0078   -2.4712    0.0000 C   0  0  0  0  0  0  0  0  0  0  0  0
    7.2470   -2.9423    0.0000 C   0  0  0  0  0  0  0  0  0  0  0  0
  1  2  1  0  0  0  0
  2  3  1  0  0  0  0
  2 13  1  0  0  0  0
  3  4  1  0  0  0  0
  3 10  1  0  0  0  0
  4  5  2  0  0  0  0
  4  9  1  0  0  0  0
  5  6  1  0  0  0  0
  6  7  2  0  0  0  0
  7  8  1  0  0  0  0
  8  9  2  0  0  0  0
 10 11  2  0  0  0  0
 10 12  1  0  0  0  0
 12 13  2  0  0  0  0
 13 14  1  0  0  0  0
M  END
>  <DSSTox_RID>
21117

>  <DSSTox_CID>
1117

>  <DSSTox_Generic_SID>
21117

>  <DSSTox_FileID>
1168_CPDBAS_v5d

>  <STRUCTURE_Formula>
C11H12N2O

>  <STRUCTURE_MolecularWeight>
188.2286

>  <STRUCTURE_ChemicalType>
defined organic

>  <STRUCTURE_TestedForm_DefinedOrganic>
parent

>  <STRUCTURE_Shown>
tested chemical

>  <TestSubstance_ChemicalName>
Phenazone

>  <TestSubstance_CASRN>
60-80-0

>  <TestSubstance_Description>
single chemical compound

>  <STRUCTURE_ChemicalName_IUPAC>
1,5-dimethyl-2-phenyl-1,2-dihydro-3H-pyrazol-3-one

>  <STRUCTURE_SMILES>
CN1N(C2=CC=CC=C2)C(=O)C=C1C

>  <STRUCTURE_Parent_SMILES>
CN1N(C2=CC=CC=C2)C(=O)C=C1C

>  <STRUCTURE_InChI>
InChI=1/C11H12N2O/c1-9-8-11(14)13(12(9)2)10-6-4-3-5-7-10/h3-8H,1-2H3

>  <STRUCTURE_InChIKey>
VEQOALNAAJBPNY-UHFFFAOYAS

>  <StudyType>
Carcinogenicity

>  <Endpoint>
TD50; Tumor Target Sites

>  <Species>
rat

>  <ActivityOutcome_CPDBAS_Mutagenicity>
inactive

>  <TD50_Rat_mg>
1230

>  <TD50_Rat_mmol>
6.53

>  <ActivityScore_CPDBAS_Rat>
17

>  <TargetSites_Rat_Male>
kidney; urinary bladder

>  <ActivityOutcome_CPDBAS_Rat>
active

>  <ActivityOutcome_CPDBAS_SingleCellCall>
active

>  <ActivityOutcome_CPDBAS_MultiCellCall>
active

>  <ActivityOutcome_CPDBAS_MultiCellCall_Details>
multisite active

>  <ChemicalPage_URL>
http://potency.berkeley.edu/chempages/PHENAZONE.html

$$$$



 48 52  0  0  1  0  0  0  0  0999 V2000
    9.3261   -4.6137    0.0000 O   0  0  0  0  0  0  0  0  0  0  0  0
    9.3508   -5.9460    0.0000 C   0  0  0  0  0  0  0  0  0  0  0  0
    8.2159   -6.6615    0.0000 C   0  0  0  0  0  0  0  0  0  0  0  0
    6.9823   -5.9707    0.0000 C   0  0  0  0  0  0  0  0  0  0  0  0
    5.8720   -6.7109    0.0000 C   0  0  0  0  0  0  0  0  0  0  0  0
    4.6877   -5.9460    0.0000 C   0  0  0  0  0  0  0  0  0  0  0  0
    4.6631   -4.7124    0.0000 C   0  0  0  0  0  0  0  0  0  0  0  0
    5.8227   -4.0216    0.0000 C   0  0  0  0  0  0  0  0  0  0  0  0
    7.0069   -4.6631    0.0000 C   0  0  0  0  0  0  0  0  0  0  0  0
    3.4788   -4.0709    0.0000 N   0  0  0  0  0  0  0  0  0  0  0  0
    3.4541   -2.7386    0.0000 C   0  0  0  0  0  0  0  0  0  0  0  0
    2.2699   -2.0971    0.0000 C   0  0  0  0  0  0  0  0  0  0  0  0
    2.2205   -0.7402    0.0000 Cl  0  0  0  0  0  0  0  0  0  0  0  0
    2.3439   -4.7864    0.0000 C   0  0  0  0  0  0  0  0  0  0  0  0
    1.1596   -4.1450    0.0000 C   0  0  0  0  0  0  0  0  0  0  0  0
    0.0000   -4.8358    0.0000 Cl  0  0  0  0  0  0  0  0  0  0  0  0
   17.3200   -2.6646    0.0000 C   0  0  1  0  0  0  0  0  0  0  0  0
   13.8165   -4.6631    0.0000 C   0  0  1  0  0  0  0  0  0  0  0  0
   13.8165   -6.0200    0.0000 C   0  0  0  0  0  0  0  0  0  0  0  0
   17.3200   -4.0216    0.0000 C   0  0  2  0  0  0  0  0  0  0  0  0
   14.9761   -3.9969    0.0000 C   0  0  2  0  0  0  0  0  0  0  0  0
   16.1604   -4.6631    0.0000 C   0  0  1  0  0  0  0  0  0  0  0  0
   18.6029   -2.2452    0.0000 C   0  0  2  0  0  0  0  0  0  0  0  0
   14.9761   -6.6862    0.0000 C   0  0  0  0  0  0  0  0  0  0  0  0
   16.1604   -2.0231    0.0000 C   0  0  0  0  0  0  0  0  0  0  0  0
   16.1604   -6.0200    0.0000 C   0  0  0  0  0  0  0  0  0  0  0  0
   14.9761   -2.6646    0.0000 C   0  0  0  0  0  0  0  0  0  0  0  0
   18.6029   -4.4410    0.0000 C   0  0  0  0  0  0  0  0  0  0  0  0
   12.6569   -3.9969    0.0000 C   0  0  0  0  0  0  0  0  0  0  0  0
   19.3431   -3.3308    0.0000 C   0  0  0  0  0  0  0  0  0  0  0  0
   12.6569   -6.6862    0.0000 C   0  0  0  0  0  0  0  0  0  0  0  0
   19.0470   -0.9869    0.0000 C   0  0  1  0  0  0  0  0  0  0  0  0
   17.3200   -1.4063    0.0000 C   0  0  0  0  0  0  0  0  0  0  0  0
   11.4973   -4.6631    0.0000 C   0  0  0  0  0  0  0  0  0  0  0  0
   11.4973   -6.0200    0.0000 C   0  0  2  0  0  0  0  0  0  0  0  0
   13.8165   -3.4048    0.0000 C   0  0  0  0  0  0  0  0  0  0  0  0
   10.5351   -6.5875    0.0000 O   0  0  0  0  0  0  0  0  0  0  0  0
   21.1442   -1.8011    0.0000 C   0  0  0  0  0  0  0  0  0  0  0  0
   20.3547   -0.7648    0.0000 C   0  0  0  0  0  0  0  0  0  0  0  0
   18.1835    0.0000    0.0000 C   0  0  0  0  0  0  0  0  0  0  0  0
   22.5012   -1.6037    0.0000 C   0  0  0  0  0  0  0  0  0  0  0  0
   23.3400   -2.6399    0.0000 C   0  0  0  0  0  0  0  0  0  0  0  0
   22.8466   -3.8736    0.0000 C   0  0  0  0  0  0  0  0  0  0  0  0
   24.6723   -2.4179    0.0000 C   0  0  0  0  0  0  0  0  0  0  0  0
   14.9761   -5.3539    0.0000 H   0  0  0  0  0  0  0  0  0  0  0  0
   17.3200   -5.3292    0.0000 H   0  0  0  0  0  0  0  0  0  0  0  0
   18.6029   -3.4295    0.0000 H   0  0  0  0  0  0  0  0  0  0  0  0
   16.1604   -3.3308    0.0000 H   0  0  0  0  0  0  0  0  0  0  0  0
  1  2  2  0  0  0  0
  2  3  1  0  0  0  0
  2 37  1  0  0  0  0
  3  4  1  0  0  0  0
  4  5  2  0  0  0  0
  4  9  1  0  0  0  0
  5  6  1  0  0  0  0
  6  7  2  0  0  0  0
  7  8  1  0  0  0  0
  7 10  1  0  0  0  0
  8  9  2  0  0  0  0
 10 11  1  0  0  0  0
 10 14  1  0  0  0  0
 11 12  1  0  0  0  0
 12 13  1  0  0  0  0
 14 15  1  0  0  0  0
 15 16  1  0  0  0  0
 17 20  1  0  0  0  0
 17 23  1  0  0  0  0
 17 25  1  0  0  0  0
 17 33  1  1  0  0  0
 18 21  1  0  0  0  0
 18 19  1  0  0  0  0
 18 29  1  0  0  0  0
 18 36  1  1  0  0  0
 19 31  1  0  0  0  0
 19 24  2  0  0  0  0
 20 22  1  0  0  0  0
 20 28  1  0  0  0  0
 20 46  1  6  0  0  0
 21 27  1  0  0  0  0
 21 45  1  6  0  0  0
 21 22  1  0  0  0  0
 22 26  1  0  0  0  0
 22 48  1  1  0  0  0
 23 30  1  0  0  0  0
 23 32  1  0  0  0  0
 23 47  1  6  0  0  0
 24 26  1  0  0  0  0
 25 27  1  0  0  0  0
 28 30  1  0  0  0  0
 29 34  1  0  0  0  0
 31 35  1  0  0  0  0
 32 39  1  0  0  0  0
 32 40  1  6  0  0  0
 34 35  1  0  0  0  0
 35 37  1  1  0  0  0
 38 39  1  0  0  0  0
 38 41  1  0  0  0  0
 41 42  1  0  0  0  0
 42 43  1  0  0  0  0
 42 44  1  0  0  0  0
M  END
>  <DSSTox_RID>
21119

>  <DSSTox_CID>
1119

>  <DSSTox_Generic_SID>
21119

>  <DSSTox_FileID>
1170_CPDBAS_v5d

>  <STRUCTURE_Formula>
C39H59Cl2NO2

>  <STRUCTURE_MolecularWeight>
644.7973

>  <STRUCTURE_ChemicalType>
defined organic

>  <STRUCTURE_TestedForm_DefinedOrganic>
parent

>  <STRUCTURE_Shown>
tested chemical

>  <TestSubstance_ChemicalName>
Phenesterin

>  <TestSubstance_CASRN>
3546-10-9

>  <TestSubstance_Description>
single chemical compound

>  <ChemicalNote>
stereochem

>  <STRUCTURE_ChemicalName_IUPAC>
(3beta)-cholest-5-en-3-yl {4-[bis(2-chloroethyl)amino]phenyl}acetate

>  <STRUCTURE_SMILES>
O=C(O[C@@H]5CC([C@@](CC5)(C)[C@]([H])3CC4)=CC[C@@]3([H])[C@@]2([H])[C@@]4(C)[C@]([C@H](C)CCCC(C)C)([H])CC2)CC1=CC=C(N(CCCl)CCCl)C=C1

>  <STRUCTURE_Parent_SMILES>
O=C(O[C@@H]5CC([C@@](CC5)(C)[C@]([H])3CC4)=CC[C@@]3([H])[C@@]2([H])[C@@]4(C)[C@]([C@H](C)CCCC(C)C)([H])CC2)CC1=CC=C(N(CCCl)CCCl)C=C1

>  <STRUCTURE_InChI>
InChI=1/C39H59Cl2NO2/c1-27(2)7-6-8-28(3)34-15-16-35-33-14-11-30-26-32(17-19-38(30,4)36(33)18-20-39(34,35)5)44-37(43)25-29-9-12-31(13-10-29)42(23-21-40)24-22-41/h9-13,27-28,32-36H,6-8,14-26H2,1-5H3/t28-,32+,33+,34-,35+,36+,38+,39-/m1/s1

>  <STRUCTURE_InChIKey>
SPJCRMJCFSJKDE-ZWBUGVOYBG

>  <StudyType>
Carcinogenicity

>  <Endpoint>
TD50; Tumor Target Sites

>  <Species>
rat; mouse

>  <ActivityOutcome_CPDBAS_Mutagenicity>
inactive

>  <TD50_Rat_mg>
0.523

>  <TD50_Rat_mmol>
0.000811

>  <ActivityScore_CPDBAS_Rat>
58

>  <TargetSites_Rat_Male>
no positive results

>  <TargetSites_Rat_Female>
mammary gland

>  <ActivityOutcome_CPDBAS_Rat>
active

>  <TD50_Mouse_mg>
0.616

>  <TD50_Mouse_mmol>
0.000955

>  <ActivityScore_CPDBAS_Mouse>
62

>  <TD50_Mouse_Note>
TD50 is harmonic mean of more than one positive test

>  <TargetSites_Mouse_Male>
hematopoietic system; lung; myocardium

>  <TargetSites_Mouse_Female>
hematopoietic system; lung; myocardium

>  <ActivityOutcome_CPDBAS_Mouse>
active

>  <ActivityOutcome_CPDBAS_SingleCellCall>
active

>  <ActivityOutcome_CPDBAS_MultiCellCall>
active

>  <ActivityOutcome_CPDBAS_MultiCellCall_Details>
multisite active; multisex active; multispecies active

>  <NTP_TechnicalReport>
TR 60

>  <ChemicalPage_URL>
http://potency.berkeley.edu/chempages/PHENESTERIN.html

$$$$



 11 11  0  0  0  0  0  0  0  0999 V2000
    5.7578   -1.9999    0.0000 C   0  0  0  0  0  0  0  0  0  0  0  0
    4.6046   -2.6612    0.0000 C   0  0  0  0  0  0  0  0  0  0  0  0
    3.4595   -1.9999    0.0000 C   0  0  0  0  0  0  0  0  0  0  0  0
    2.3063   -2.6612    0.0000 N   0  0  0  0  0  0  0  0  0  0  0  0
    1.1532   -1.9999    0.0000 C   0  0  0  0  0  0  0  0  0  0  0  0
    0.0000   -1.3306    0.0000 S   0  0  0  0  0  0  0  0  0  0  0  0
    5.7578   -0.6693    0.0000 C   0  0  0  0  0  0  0  0  0  0  0  0
    6.9109    0.0000    0.0000 C   0  0  0  0  0  0  0  0  0  0  0  0
    8.0641   -0.6693    0.0000 C   0  0  0  0  0  0  0  0  0  0  0  0
    8.0641   -1.9999    0.0000 C   0  0  0  0  0  0  0  0  0  0  0  0
    6.9109   -2.6612    0.0000 C   0  0  0  0  0  0  0  0  0  0  0  0
  1  2  1  0  0  0  0
  1  7  2  0  0  0  0
  1 11  1  0  0  0  0
  2  3  1  0  0  0  0
  3  4  1  0  0  0  0
  4  5  2  0  0  0  0
  5  6  2  0  0  0  0
  7  8  1  0  0  0  0
  8  9  2  0  0  0  0
  9 10  1  0  0  0  0
 10 11  2  0  0  0  0
M  END
>  <DSSTox_RID>
21120

>  <DSSTox_CID>
1120

>  <DSSTox_Generic_SID>
21120

>  <DSSTox_FileID>
1171_CPDBAS_v5d

>  <STRUCTURE_Formula>
C9H9NS

>  <STRUCTURE_MolecularWeight>
163.2368

>  <STRUCTURE_ChemicalType>
defined organic

>  <STRUCTURE_TestedForm_DefinedOrganic>
parent

>  <STRUCTURE_Shown>
tested chemical

>  <TestSubstance_ChemicalName>
Phenethyl isothiocyanate

>  <TestSubstance_CASRN>
2257-09-2

>  <TestSubstance_Description>
single chemical compound

>  <STRUCTURE_ChemicalName_IUPAC>
(2-isothiocyanatoethyl)benzene

>  <STRUCTURE_SMILES>
C1(CCN=C=S)=CC=CC=C1

>  <STRUCTURE_Parent_SMILES>
C1(CCN=C=S)=CC=CC=C1

>  <STRUCTURE_InChI>
InChI=1/C9H9NS/c11-8-10-7-6-9-4-2-1-3-5-9/h1-5H,6-7H2

>  <STRUCTURE_InChIKey>
IZJDOKYDEWTZSO-UHFFFAOYAB

>  <StudyType>
Carcinogenicity

>  <Endpoint>
TD50; Tumor Target Sites

>  <Species>
rat; hamster

>  <ActivityScore_CPDBAS_Rat>
0

>  <TD50_Rat_Note>
no positive results

>  <TargetSites_Rat_Male>
no positive results

>  <ActivityOutcome_CPDBAS_Rat>
inactive

>  <ActivityScore_CPDBAS_Hamster>
0

>  <TD50_Hamster_Note>
no positive results

>  <TargetSites_Hamster_Female>
no positive results

>  <ActivityOutcome_CPDBAS_Hamster>
inactive

>  <ActivityOutcome_CPDBAS_SingleCellCall>
inactive

>  <Note_CPDBAS>
TD50_Hamster added v5a; TargetSites_Hamster_Female added v5a

>  <ChemicalPage_URL>
http://potency.berkeley.edu/chempages/PHENETHYL%20ISOTHIOCYANATE.html

$$$$



 17 18  0  0  0  0  0  0  0  0999 V2000
    2.3044    0.0000    0.0000 O   0  0  0  0  0  0  0  0  0  0  0  0
    2.3044   -1.3295    0.0000 C   0  0  0  0  0  0  0  0  0  0  0  0
    3.4567   -1.9942    0.0000 C   0  0  0  0  0  0  0  0  0  0  0  0
    4.7640   -2.2232    0.0000 C   0  0  0  0  0  0  0  0  0  0  0  0
    5.6208   -1.2039    0.0000 C   0  0  0  0  0  0  0  0  0  0  0  0
    6.9281   -1.4329    0.0000 C   0  0  0  0  0  0  0  0  0  0  0  0
    7.3860   -2.6885    0.0000 C   0  0  0  0  0  0  0  0  0  0  0  0
    6.5292   -3.7078    0.0000 C   0  0  0  0  0  0  0  0  0  0  0  0
    5.2219   -3.4714    0.0000 C   0  0  0  0  0  0  0  0  0  0  0  0
    3.4567   -3.3237    0.0000 C   0  0  0  0  0  0  0  0  0  0  0  0
    4.6089   -3.9884    0.0000 O   0  0  0  0  0  0  0  0  0  0  0  0
    2.3044   -3.9884    0.0000 N   0  0  0  0  0  0  0  0  0  0  0  0
    1.1522   -3.3237    0.0000 C   0  0  0  0  0  0  0  0  0  0  0  0
    0.0000   -3.9884    0.0000 O   0  0  0  0  0  0  0  0  0  0  0  0
    1.1522   -1.9942    0.0000 N   0  0  0  0  0  0  0  0  0  0  0  0
    3.9146   -0.7460    0.0000 C   0  0  0  0  0  0  0  0  0  0  0  0
    5.2219   -0.5096    0.0000 C   0  0  0  0  0  0  0  0  0  0  0  0
  1  2  2  0  0  0  0
  2  3  1  0  0  0  0
  2 15  1  0  0  0  0
  3  4  1  0  0  0  0
  3 10  1  0  0  0  0
  3 16  1  0  0  0  0
  4  5  2  0  0  0  0
  4  9  1  0  0  0  0
  5  6  1  0  0  0  0
  6  7  2  0  0  0  0
  7  8  1  0  0  0  0
  8  9  2  0  0  0  0
 10 11  2  0  0  0  0
 10 12  1  0  0  0  0
 12 13  1  0  0  0  0
 13 14  2  0  0  0  0
 13 15  1  0  0  0  0
 16 17  1  0  0  0  0
M  END
>  <DSSTox_RID>
21122

>  <DSSTox_CID>
1122

>  <DSSTox_Generic_SID>
21122

>  <DSSTox_FileID>
1173_CPDBAS_v5d

>  <STRUCTURE_Formula>
C12H12N2O3

>  <STRUCTURE_MolecularWeight>
232.2353

>  <STRUCTURE_ChemicalType>
defined organic

>  <STRUCTURE_TestedForm_DefinedOrganic>
parent

>  <STRUCTURE_Shown>
tested chemical

>  <TestSubstance_ChemicalName>
Phenobarbital

>  <TestSubstance_CASRN>
50-06-6

>  <TestSubstance_Description>
single chemical compound

>  <STRUCTURE_ChemicalName_IUPAC>
5-ethyl-5-phenylpyrimidine-2,4,6(1H,3H,5H)-trione

>  <STRUCTURE_SMILES>
O=C1C(C2=CC=CC=C2)(C(=O)NC(=O)N1)CC

>  <STRUCTURE_Parent_SMILES>
O=C1C(C2=CC=CC=C2)(C(=O)NC(=O)N1)CC

>  <STRUCTURE_InChI>
InChI=1/C12H12N2O3/c1-2-12(8-6-4-3-5-7-8)9(15)13-11(17)14-10(12)16/h3-7H,2H2,1H3,(H2,13,14,15,16,17)/f/h13-14H

>  <STRUCTURE_InChIKey>
DDBREPKUVSBGFI-KGCNKATMCV

>  <StudyType>
Carcinogenicity

>  <Endpoint>
TD50; Tumor Target Sites

>  <Species>
rat; mouse; hamster

>  <ActivityOutcome_CPDBAS_Mutagenicity>
active

>  <ActivityScore_CPDBAS_Rat>
0

>  <TD50_Rat_Note>
no positive results

>  <TargetSites_Rat_Male>
no positive results

>  <TargetSites_Rat_Female>
no positive results

>  <ActivityOutcome_CPDBAS_Rat>
inactive

>  <TD50_Mouse_mg>
7.37

>  <TD50_Mouse_mmol>
0.0317

>  <ActivityScore_CPDBAS_Mouse>
45

>  <TD50_Mouse_Note>
TD50 is harmonic mean of more than one positive test; harmonic mean of TD50 includes a value for upper 99% confidence limit from study with 100% tumor incidence but no lifetable; greater than ten-fold variation among TD50 values for positive results

>  <TargetSites_Mouse_Male>
liver

>  <TargetSites_Mouse_Female>
liver

>  <ActivityOutcome_CPDBAS_Mouse>
active

>  <ActivityScore_CPDBAS_Hamster>
0

>  <TD50_Hamster_Note>
no positive results

>  <TargetSites_Hamster_Male>
no positive results

>  <ActivityOutcome_CPDBAS_Hamster>
inactive

>  <ActivityOutcome_CPDBAS_SingleCellCall>
active

>  <ActivityOutcome_CPDBAS_MultiCellCall>
active

>  <ActivityOutcome_CPDBAS_MultiCellCall_Details>
multisex active

>  <Note_CPDBAS>
TD50_Mouse modified v2a; TD50_Mouse_Note modified v5a

>  <ChemicalPage_URL>
http://potency.berkeley.edu/chempages/PHENOBARBITAL.html

$$$$



  7  7  0  0  0  0  0  0  0  0999 V2000
    0.0000   -1.1496    0.0000 O   0  0  0  0  0  0  0  0  0  0  0  0
    1.3292   -1.1496    0.0000 C   0  0  0  0  0  0  0  0  0  0  0  0
    1.9958    0.0000    0.0000 C   0  0  0  0  0  0  0  0  0  0  0  0
    3.3250    0.0000    0.0000 C   0  0  0  0  0  0  0  0  0  0  0  0
    3.9916   -1.1496    0.0000 C   0  0  0  0  0  0  0  0  0  0  0  0
    3.3250   -2.3032    0.0000 C   0  0  0  0  0  0  0  0  0  0  0  0
    1.9958   -2.3032    0.0000 C   0  0  0  0  0  0  0  0  0  0  0  0
  1  2  1  0  0  0  0
  2  3  2  0  0  0  0
  2  7  1  0  0  0  0
  3  4  1  0  0  0  0
  4  5  2  0  0  0  0
  5  6  1  0  0  0  0
  6  7  2  0  0  0  0
M  END
>  <DSSTox_RID>
21124

>  <DSSTox_CID>
1124

>  <DSSTox_Generic_SID>
21124

>  <DSSTox_FileID>
1175_CPDBAS_v5d

>  <STRUCTURE_Formula>
C6H6O

>  <STRUCTURE_MolecularWeight>
94.1112

>  <STRUCTURE_ChemicalType>
defined organic

>  <STRUCTURE_TestedForm_DefinedOrganic>
parent

>  <STRUCTURE_Shown>
tested chemical

>  <TestSubstance_ChemicalName>
Phenol

>  <TestSubstance_CASRN>
108-95-2

>  <TestSubstance_Description>
single chemical compound

>  <STRUCTURE_ChemicalName_IUPAC>
phenol

>  <STRUCTURE_SMILES>
OC1=CC=CC=C1

>  <STRUCTURE_Parent_SMILES>
OC1=CC=CC=C1

>  <STRUCTURE_InChI>
InChI=1/C6H6O/c7-6-4-2-1-3-5-6/h1-5,7H

>  <STRUCTURE_InChIKey>
ISWSIDIOOBJBQZ-UHFFFAOYAI

>  <StudyType>
Carcinogenicity

>  <Endpoint>
TD50; Tumor Target Sites

>  <Species>
rat; mouse

>  <ActivityOutcome_CPDBAS_Mutagenicity>
inactive

>  <ActivityScore_CPDBAS_Rat>
0

>  <TD50_Rat_Note>
no positive results

>  <TargetSites_Rat_Male>
no positive results

>  <TargetSites_Rat_Female>
no positive results

>  <ActivityOutcome_CPDBAS_Rat>
inactive

>  <ActivityScore_CPDBAS_Mouse>
0

>  <TD50_Mouse_Note>
no positive results

>  <TargetSites_Mouse_Male>
no positive results

>  <TargetSites_Mouse_Female>
no positive results

>  <ActivityOutcome_CPDBAS_Mouse>
inactive

>  <ActivityOutcome_CPDBAS_SingleCellCall>
inactive

>  <ActivityOutcome_CPDBAS_MultiCellCall>
inactive

>  <ActivityOutcome_CPDBAS_MultiCellCall_Details>
multisex inactive; multispecies inactive

>  <NTP_TechnicalReport>
TR 203

>  <ChemicalPage_URL>
http://potency.berkeley.edu/chempages/PHENOL.html

$$$$



 24 27  0  0  0  0  0  0  0  0999 V2000
    0.5369   -6.3722    0.0000 O   0  0  0  0  0  0  0  0  0  0  0  0
    1.4292   -5.3773    0.0000 C   0  0  0  0  0  0  0  0  0  0  0  0
    2.7479   -5.5194    0.0000 O   0  0  0  0  0  0  0  0  0  0  0  0
    3.2927   -4.3034    0.0000 C   0  0  0  0  0  0  0  0  0  0  0  0
    2.3057   -3.4191    0.0000 C   0  0  0  0  0  0  0  0  0  0  0  0
    1.1528   -4.0823    0.0000 C   0  0  0  0  0  0  0  0  0  0  0  0
    0.0000   -3.4191    0.0000 C   0  0  0  0  0  0  0  0  0  0  0  0
    0.0000   -2.0846    0.0000 C   0  0  0  0  0  0  0  0  0  0  0  0
    1.1528   -1.4213    0.0000 C   0  0  0  0  0  0  0  0  0  0  0  0
    2.3057   -2.0846    0.0000 C   0  0  0  0  0  0  0  0  0  0  0  0
    4.0744   -3.2295    0.0000 C   0  0  0  0  0  0  0  0  0  0  0  0
    3.5296   -2.0135    0.0000 C   0  0  0  0  0  0  0  0  0  0  0  0
    4.3113   -0.9396    0.0000 C   0  0  0  0  0  0  0  0  0  0  0  0
    5.6379   -1.0818    0.0000 C   0  0  0  0  0  0  0  0  0  0  0  0
    6.1748   -2.2899    0.0000 C   0  0  0  0  0  0  0  0  0  0  0  0
    5.3931   -3.3717    0.0000 C   0  0  0  0  0  0  0  0  0  0  0  0
    6.4196    0.0000    0.0000 O   0  0  0  0  0  0  0  0  0  0  0  0
    4.4456   -4.9667    0.0000 C   0  0  0  0  0  0  0  0  0  0  0  0
    5.5905   -4.3034    0.0000 C   0  0  0  0  0  0  0  0  0  0  0  0
    6.7433   -4.9667    0.0000 C   0  0  0  0  0  0  0  0  0  0  0  0
    6.7433   -6.3012    0.0000 C   0  0  0  0  0  0  0  0  0  0  0  0
    5.5905   -6.9644    0.0000 C   0  0  0  0  0  0  0  0  0  0  0  0
    4.4456   -6.3012    0.0000 C   0  0  0  0  0  0  0  0  0  0  0  0
    7.8962   -6.9644    0.0000 O   0  0  0  0  0  0  0  0  0  0  0  0
  1  2  2  0  0  0  0
  2  3  1  0  0  0  0
  2  6  1  0  0  0  0
  3  4  1  0  0  0  0
  4  5  1  0  0  0  0
  4 11  1  0  0  0  0
  4 18  1  0  0  0  0
  5  6  2  0  0  0  0
  5 10  1  0  0  0  0
  6  7  1  0  0  0  0
  7  8  2  0  0  0  0
  8  9  1  0  0  0  0
  9 10  2  0  0  0  0
 11 12  2  0  0  0  0
 11 16  1  0  0  0  0
 12 13  1  0  0  0  0
 13 14  2  0  0  0  0
 14 15  1  0  0  0  0
 14 17  1  0  0  0  0
 15 16  2  0  0  0  0
 18 19  2  0  0  0  0
 18 23  1  0  0  0  0
 19 20  1  0  0  0  0
 20 21  2  0  0  0  0
 21 22  1  0  0  0  0
 21 24  1  0  0  0  0
 22 23  2  0  0  0  0
M  END
>  <DSSTox_RID>
21125

>  <DSSTox_CID>
1125

>  <DSSTox_Generic_SID>
21125

>  <DSSTox_FileID>
1176_CPDBAS_v5d

>  <STRUCTURE_Formula>
C20H14O4

>  <STRUCTURE_MolecularWeight>
318.3282

>  <STRUCTURE_ChemicalType>
defined organic

>  <STRUCTURE_TestedForm_DefinedOrganic>
parent

>  <STRUCTURE_Shown>
tested chemical

>  <TestSubstance_ChemicalName>
Phenolphthalein

>  <TestSubstance_CASRN>
77-09-8

>  <TestSubstance_Description>
single chemical compound

>  <ChemicalNote>
furanone form shown [77-09-8], acid form [81-90-3]

>  <STRUCTURE_ChemicalName_IUPAC>
3,3-bis(4-hydroxyphenyl)-2-benzofuran-1(3H)-one

>  <STRUCTURE_SMILES>
O=C1OC(C2=C1C=CC=C2)(C3=CC=C(C=C3)O)C4=CC=C(C=C4)O

>  <STRUCTURE_Parent_SMILES>
O=C1OC(C2=C1C=CC=C2)(C3=CC=C(C=C3)O)C4=CC=C(C=C4)O

>  <STRUCTURE_InChI>
InChI=1/C20H14O4/c21-15-9-5-13(6-10-15)20(14-7-11-16(22)12-8-14)18-4-2-1-3-17(18)19(23)24-20/h1-12,21-22H

>  <STRUCTURE_InChIKey>
KJFMBFZCATUALV-UHFFFAOYAH

>  <StudyType>
Carcinogenicity

>  <Endpoint>
TD50; Tumor Target Sites

>  <Species>
rat; mouse

>  <ActivityOutcome_CPDBAS_Mutagenicity>
inactive

>  <TD50_Rat_mg>
902

>  <TD50_Rat_mmol>
2.83

>  <ActivityScore_CPDBAS_Rat>
21

>  <TD50_Rat_Note>
TD50 is harmonic mean of more than one positive test

>  <TargetSites_Rat_Male>
adrenal gland; kidney

>  <TargetSites_Rat_Female>
adrenal gland

>  <ActivityOutcome_CPDBAS_Rat>
active

>  <TD50_Mouse_mg>
1170

>  <TD50_Mouse_mmol>
3.68

>  <ActivityScore_CPDBAS_Mouse>
22

>  <TD50_Mouse_Note>
TD50 is harmonic mean of more than one positive test

>  <TargetSites_Mouse_Male>
hematopoietic system

>  <TargetSites_Mouse_Female>
hematopoietic system; ovary

>  <ActivityOutcome_CPDBAS_Mouse>
active

>  <ActivityOutcome_CPDBAS_SingleCellCall>
active

>  <ActivityOutcome_CPDBAS_MultiCellCall>
active

>  <ActivityOutcome_CPDBAS_MultiCellCall_Details>
multisite active; multisex active; multispecies active

>  <NTP_TechnicalReport>
TR 465

>  <ChemicalPage_URL>
http://potency.berkeley.edu/chempages/PHENOLPHTHALEIN.html

$$$$



 14 16  0  0  0  0  0  0  0  0999 V2000
    3.4545    0.0000    0.0000 N   0  0  0  0  0  0  0  0  0  0  0  0
    4.6083   -0.6633    0.0000 C   0  0  0  0  0  0  0  0  0  0  0  0
    4.6083   -1.9967    0.0000 C   0  0  0  0  0  0  0  0  0  0  0  0
    5.7552   -2.6600    0.0000 C   0  0  0  0  0  0  0  0  0  0  0  0
    6.9090   -1.9967    0.0000 C   0  0  0  0  0  0  0  0  0  0  0  0
    6.9090   -0.6633    0.0000 C   0  0  0  0  0  0  0  0  0  0  0  0
    5.7552    0.0000    0.0000 C   0  0  0  0  0  0  0  0  0  0  0  0
    3.4545   -2.6600    0.0000 S   0  0  0  0  0  0  0  0  0  0  0  0
    2.3007   -1.9967    0.0000 C   0  0  0  0  0  0  0  0  0  0  0  0
    1.1538   -2.6600    0.0000 C   0  0  0  0  0  0  0  0  0  0  0  0
    0.0000   -1.9967    0.0000 C   0  0  0  0  0  0  0  0  0  0  0  0
    0.0000   -0.6633    0.0000 C   0  0  0  0  0  0  0  0  0  0  0  0
    1.1538    0.0000    0.0000 C   0  0  0  0  0  0  0  0  0  0  0  0
    2.3007   -0.6633    0.0000 C   0  0  0  0  0  0  0  0  0  0  0  0
  1  2  1  0  0  0  0
  1 14  1  0  0  0  0
  2  3  2  0  0  0  0
  2  7  1  0  0  0  0
  3  4  1  0  0  0  0
  3  8  1  0  0  0  0
  4  5  2  0  0  0  0
  5  6  1  0  0  0  0
  6  7  2  0  0  0  0
  8  9  1  0  0  0  0
  9 10  2  0  0  0  0
  9 14  1  0  0  0  0
 10 11  1  0  0  0  0
 11 12  2  0  0  0  0
 12 13  1  0  0  0  0
 13 14  2  0  0  0  0
M  END
>  <DSSTox_RID>
21126

>  <DSSTox_CID>
1126

>  <DSSTox_Generic_SID>
21126

>  <DSSTox_FileID>
1177_CPDBAS_v5d

>  <STRUCTURE_Formula>
C12H9NS

>  <STRUCTURE_MolecularWeight>
199.2716

>  <STRUCTURE_ChemicalType>
defined organic

>  <STRUCTURE_TestedForm_DefinedOrganic>
parent

>  <STRUCTURE_Shown>
tested chemical

>  <TestSubstance_ChemicalName>
Phenothiazine

>  <TestSubstance_CASRN>
92-84-2

>  <TestSubstance_Description>
single chemical compound

>  <STRUCTURE_ChemicalName_IUPAC>
10H-phenothiazine

>  <STRUCTURE_SMILES>
N1C2=C(C=CC=C2)SC3=CC=CC=C13

>  <STRUCTURE_Parent_SMILES>
N1C2=C(C=CC=C2)SC3=CC=CC=C13

>  <STRUCTURE_InChI>
InChI=1/C12H9NS/c1-3-7-11-9(5-1)13-10-6-2-4-8-12(10)14-11/h1-8,13H

>  <STRUCTURE_InChIKey>
WJFKNYWRSNBZNX-UHFFFAOYAI

>  <StudyType>
Carcinogenicity

>  <Endpoint>
TD50; Tumor Target Sites

>  <Species>
mouse

>  <ActivityOutcome_CPDBAS_Mutagenicity>
inactive

>  <ActivityScore_CPDBAS_Mouse>
0

>  <TD50_Mouse_Note>
no positive results

>  <TargetSites_Mouse_Male>
no positive results

>  <TargetSites_Mouse_Female>
no positive results

>  <ActivityOutcome_CPDBAS_Mouse>
inactive

>  <ActivityOutcome_CPDBAS_SingleCellCall>
inactive

>  <ActivityOutcome_CPDBAS_MultiCellCall>
inactive

>  <ActivityOutcome_CPDBAS_MultiCellCall_Details>
multisex inactive

>  <ChemicalPage_URL>
http://potency.berkeley.edu/chempages/PHENOTHIAZINE.html

$$$$



 11 11  0  0  0  0  0  0  0  0999 V2000
    0.0000   -2.3079    0.0000 C   0  0  0  0  0  0  0  0  0  0  0  0
    0.6651   -1.1573    0.0000 N   0  0  0  0  0  0  0  0  0  0  0  0
    0.0000    0.0000    0.0000 C   0  0  0  0  0  0  0  0  0  0  0  0
    1.9953   -1.1573    0.0000 N   0  0  0  0  0  0  0  0  0  0  0  0
    2.6605   -2.3079    0.0000 N   0  0  0  0  0  0  0  0  0  0  0  0
    3.9907   -2.3079    0.0000 C   0  0  0  0  0  0  0  0  0  0  0  0
    4.6558   -1.1573    0.0000 C   0  0  0  0  0  0  0  0  0  0  0  0
    5.9860   -1.1573    0.0000 C   0  0  0  0  0  0  0  0  0  0  0  0
    6.6511   -2.3079    0.0000 C   0  0  0  0  0  0  0  0  0  0  0  0
    5.9860   -3.4586    0.0000 C   0  0  0  0  0  0  0  0  0  0  0  0
    4.6558   -3.4586    0.0000 C   0  0  0  0  0  0  0  0  0  0  0  0
  1  2  1  0  0  0  0
  2  3  1  0  0  0  0
  2  4  1  0  0  0  0
  4  5  2  0  0  0  0
  5  6  1  0  0  0  0
  6  7  2  0  0  0  0
  6 11  1  0  0  0  0
  7  8  1  0  0  0  0
  8  9  2  0  0  0  0
  9 10  1  0  0  0  0
 10 11  2  0  0  0  0
M  END
>  <DSSTox_RID>
21128

>  <DSSTox_CID>
1128

>  <DSSTox_Generic_SID>
21128

>  <DSSTox_FileID>
1179_CPDBAS_v5d

>  <STRUCTURE_Formula>
C8H11N3

>  <STRUCTURE_MolecularWeight>
149.195

>  <STRUCTURE_ChemicalType>
defined organic

>  <STRUCTURE_TestedForm_DefinedOrganic>
parent

>  <STRUCTURE_Shown>
tested chemical

>  <TestSubstance_ChemicalName>
1-Phenyl-3,3-dimethyltriazene

>  <TestSubstance_CASRN>
7227-91-0

>  <TestSubstance_Description>
single chemical compound

>  <STRUCTURE_ChemicalName_IUPAC>
(1E)-3,3-dimethyl-1-phenyltriaz-1-ene

>  <STRUCTURE_SMILES>
CN(C)/N=N/C1=CC=CC=C1

>  <STRUCTURE_Parent_SMILES>
CN(C)/N=N/C1=CC=CC=C1

>  <STRUCTURE_InChI>
InChI=1/C8H11N3/c1-11(2)10-9-8-6-4-3-5-7-8/h3-7H,1-2H3/b10-9+

>  <STRUCTURE_InChIKey>
LLROQAGEAVDYFP-MDZDMXLPBN

>  <StudyType>
Carcinogenicity

>  <Endpoint>
TD50; Tumor Target Sites

>  <Species>
rat

>  <ActivityOutcome_CPDBAS_Mutagenicity>
active

>  <TD50_Rat_mg>
2.31

>  <TD50_Rat_mmol>
0.0155

>  <ActivityScore_CPDBAS_Rat>
44

>  <TargetSites_Rat_BothSexes>
nervous system

>  <ActivityOutcome_CPDBAS_Rat>
active

>  <ActivityOutcome_CPDBAS_SingleCellCall>
active

>  <ChemicalPage_URL>
http://potency.berkeley.edu/chempages/1-PHENYL-3,3-DIMETHYLTRIAZENE.html

$$$$



  9  9  0  0  0  0  0  0  0  0999 V2000
    0.0000   -1.3304    0.0000 S   0  0  0  0  0  0  0  0  0  0  0  0
    1.1518   -1.9984    0.0000 C   0  0  0  0  0  0  0  0  0  0  0  0
    2.3037   -2.6607    0.0000 N   0  0  0  0  0  0  0  0  0  0  0  0
    3.4555   -1.9984    0.0000 C   0  0  0  0  0  0  0  0  0  0  0  0
    3.4555   -0.6681    0.0000 C   0  0  0  0  0  0  0  0  0  0  0  0
    4.6073    0.0000    0.0000 C   0  0  0  0  0  0  0  0  0  0  0  0
    5.7591   -0.6681    0.0000 C   0  0  0  0  0  0  0  0  0  0  0  0
    5.7591   -1.9984    0.0000 C   0  0  0  0  0  0  0  0  0  0  0  0
    4.6073   -2.6607    0.0000 C   0  0  0  0  0  0  0  0  0  0  0  0
  1  2  2  0  0  0  0
  2  3  2  0  0  0  0
  3  4  1  0  0  0  0
  4  5  2  0  0  0  0
  4  9  1  0  0  0  0
  5  6  1  0  0  0  0
  6  7  2  0  0  0  0
  7  8  1  0  0  0  0
  8  9  2  0  0  0  0
M  END
>  <DSSTox_RID>
21129

>  <DSSTox_CID>
1129

>  <DSSTox_Generic_SID>
21129

>  <DSSTox_FileID>
1180_CPDBAS_v5d

>  <STRUCTURE_Formula>
C7H5NS

>  <STRUCTURE_MolecularWeight>
135.1832

>  <STRUCTURE_ChemicalType>
defined organic

>  <STRUCTURE_TestedForm_DefinedOrganic>
parent

>  <STRUCTURE_Shown>
tested chemical

>  <TestSubstance_ChemicalName>
Phenyl isothiocyanate

>  <TestSubstance_CASRN>
103-72-0

>  <TestSubstance_Description>
single chemical compound

>  <STRUCTURE_ChemicalName_IUPAC>
isothiocyanatobenzene

>  <STRUCTURE_SMILES>
S=C=NC1=CC=CC=C1

>  <STRUCTURE_Parent_SMILES>
S=C=NC1=CC=CC=C1

>  <STRUCTURE_InChI>
InChI=1/C7H5NS/c9-6-8-7-4-2-1-3-5-7/h1-5H

>  <STRUCTURE_InChIKey>
QKFJKGMPGYROCL-UHFFFAOYAC

>  <StudyType>
Carcinogenicity

>  <Endpoint>
TD50; Tumor Target Sites

>  <Species>
mouse

>  <ActivityScore_CPDBAS_Mouse>
0

>  <TD50_Mouse_Note>
no positive results

>  <TargetSites_Mouse_Male>
no positive results

>  <TargetSites_Mouse_Female>
no positive results

>  <ActivityOutcome_CPDBAS_Mouse>
inactive

>  <ActivityOutcome_CPDBAS_SingleCellCall>
inactive

>  <ActivityOutcome_CPDBAS_MultiCellCall>
inactive

>  <ActivityOutcome_CPDBAS_MultiCellCall_Details>
multisex inactive

>  <ChemicalPage_URL>
http://potency.berkeley.edu/chempages/PHENYL%20ISOTHIOCYANATE.html

$$$$



 13 14  0  0  0  0  0  0  0  0999 V2000
    3.6380    0.0000    0.0000 O   0  0  0  0  0  0  0  0  0  0  0  0
    2.9133   -1.1160    0.0000 C   0  0  0  0  0  0  0  0  0  0  0  0
    3.3916   -2.3625    0.0000 N   0  0  0  0  0  0  0  0  0  0  0  0
    4.6743   -2.7031    0.0000 C   0  0  0  0  0  0  0  0  0  0  0  0
    5.6164   -1.7610    0.0000 C   0  0  0  0  0  0  0  0  0  0  0  0
    6.8992   -2.1089    0.0000 C   0  0  0  0  0  0  0  0  0  0  0  0
    7.2470   -3.3916    0.0000 C   0  0  0  0  0  0  0  0  0  0  0  0
    6.3049   -4.3337    0.0000 C   0  0  0  0  0  0  0  0  0  0  0  0
    5.0222   -3.9859    0.0000 C   0  0  0  0  0  0  0  0  0  0  0  0
    2.3553   -3.1959    0.0000 N   0  0  0  0  0  0  0  0  0  0  0  0
    1.2392   -2.4712    0.0000 C   0  0  0  0  0  0  0  0  0  0  0  0
    1.5871   -1.1885    0.0000 C   0  0  0  0  0  0  0  0  0  0  0  0
    0.0000   -2.9495    0.0000 C   0  0  0  0  0  0  0  0  0  0  0  0
  1  2  2  0  0  0  0
  2  3  1  0  0  0  0
  2 12  1  0  0  0  0
  3  4  1  0  0  0  0
  3 10  1  0  0  0  0
  4  5  2  0  0  0  0
  4  9  1  0  0  0  0
  5  6  1  0  0  0  0
  6  7  2  0  0  0  0
  7  8  1  0  0  0  0
  8  9  2  0  0  0  0
 10 11  2  0  0  0  0
 11 12  1  0  0  0  0
 11 13  1  0  0  0  0
M  END
>  <DSSTox_RID>
21130

>  <DSSTox_CID>
1130

>  <DSSTox_Generic_SID>
21130

>  <DSSTox_FileID>
1181_CPDBAS_v5d

>  <STRUCTURE_Formula>
C10H10N2O

>  <STRUCTURE_MolecularWeight>
174.1992

>  <STRUCTURE_ChemicalType>
defined organic

>  <STRUCTURE_TestedForm_DefinedOrganic>
parent

>  <STRUCTURE_Shown>
tested chemical

>  <TestSubstance_ChemicalName>
1-Phenyl-3-methyl-5-pyrazolone

>  <TestSubstance_CASRN>
89-25-8

>  <TestSubstance_Description>
single chemical compound

>  <STRUCTURE_ChemicalName_IUPAC>
5-methyl-2-phenyl-2,4-dihydro-3H-pyrazol-3-one

>  <STRUCTURE_SMILES>
O=C1N(C2=CC=CC=C2)N=C(C1)C

>  <STRUCTURE_Parent_SMILES>
O=C1N(C2=CC=CC=C2)N=C(C1)C

>  <STRUCTURE_InChI>
InChI=1/C10H10N2O/c1-8-7-10(13)12(11-8)9-5-3-2-4-6-9/h2-6H,7H2,1H3

>  <STRUCTURE_InChIKey>
QELUYTUMUWHWMC-UHFFFAOYAI

>  <StudyType>
Carcinogenicity

>  <Endpoint>
TD50; Tumor Target Sites

>  <Species>
rat; mouse

>  <ActivityOutcome_CPDBAS_Mutagenicity>
inactive

>  <ActivityScore_CPDBAS_Rat>
0

>  <TD50_Rat_Note>
no positive results

>  <TargetSites_Rat_Male>
no positive results

>  <TargetSites_Rat_Female>
no positive results

>  <ActivityOutcome_CPDBAS_Rat>
inactive

>  <ActivityScore_CPDBAS_Mouse>
0

>  <TD50_Mouse_Note>
no positive results

>  <TargetSites_Mouse_Male>
no positive results

>  <TargetSites_Mouse_Female>
no positive results

>  <ActivityOutcome_CPDBAS_Mouse>
inactive

>  <ActivityOutcome_CPDBAS_SingleCellCall>
inactive

>  <ActivityOutcome_CPDBAS_MultiCellCall>
inactive

>  <ActivityOutcome_CPDBAS_MultiCellCall_Details>
multisex inactive; multispecies inactive

>  <NTP_TechnicalReport>
TR 141

>  <ChemicalPage_URL>
http://potency.berkeley.edu/chempages/1-PHENYL-3-METHYL-5-PYRAZOLONE.html

$$$$



 17 19  0  0  0  0  0  0  0  0999 V2000
    5.7546   -2.6609    0.0000 C   0  0  0  0  0  0  0  0  0  0  0  0
    6.9055   -1.9980    0.0000 C   0  0  0  0  0  0  0  0  0  0  0  0
    6.9055   -0.6629    0.0000 C   0  0  0  0  0  0  0  0  0  0  0  0
    5.7546    0.0000    0.0000 C   0  0  0  0  0  0  0  0  0  0  0  0
    4.6037   -0.6629    0.0000 C   0  0  0  0  0  0  0  0  0  0  0  0
    4.6037   -1.9980    0.0000 C   0  0  0  0  0  0  0  0  0  0  0  0
    3.4528   -2.6609    0.0000 N   0  0  0  0  0  0  0  0  0  0  0  0
    2.3018   -1.9980    0.0000 C   0  0  0  0  0  0  0  0  0  0  0  0
    1.1509   -2.6609    0.0000 C   0  0  0  0  0  0  0  0  0  0  0  0
    0.0000   -1.9980    0.0000 C   0  0  0  0  0  0  0  0  0  0  0  0
    0.0000   -0.6629    0.0000 C   0  0  0  0  0  0  0  0  0  0  0  0
    1.1509    0.0000    0.0000 C   0  0  0  0  0  0  0  0  0  0  0  0
    2.3018   -0.6629    0.0000 C   0  0  0  0  0  0  0  0  0  0  0  0
    8.0564    0.0000    0.0000 C   0  0  0  0  0  0  0  0  0  0  0  0
    9.2074   -0.6629    0.0000 C   0  0  0  0  0  0  0  0  0  0  0  0
    9.2074   -1.9980    0.0000 C   0  0  0  0  0  0  0  0  0  0  0  0
    8.0564   -2.6609    0.0000 C   0  0  0  0  0  0  0  0  0  0  0  0
  1  2  2  0  0  0  0
  1  6  1  0  0  0  0
  2  3  1  0  0  0  0
  2 17  1  0  0  0  0
  3  4  2  0  0  0  0
  3 14  1  0  0  0  0
  4  5  1  0  0  0  0
  5  6  2  0  0  0  0
  6  7  1  0  0  0  0
  7  8  1  0  0  0  0
  8  9  2  0  0  0  0
  8 13  1  0  0  0  0
  9 10  1  0  0  0  0
 10 11  2  0  0  0  0
 11 12  1  0  0  0  0
 12 13  2  0  0  0  0
 14 15  2  0  0  0  0
 15 16  1  0  0  0  0
 16 17  2  0  0  0  0
M  END
>  <DSSTox_RID>
21131

>  <DSSTox_CID>
1131

>  <DSSTox_Generic_SID>
21131

>  <DSSTox_FileID>
1182_CPDBAS_v5d

>  <STRUCTURE_Formula>
C16H13N

>  <STRUCTURE_MolecularWeight>
219.2811

>  <STRUCTURE_ChemicalType>
defined organic

>  <STRUCTURE_TestedForm_DefinedOrganic>
parent

>  <STRUCTURE_Shown>
tested chemical

>  <TestSubstance_ChemicalName>
Phenyl-beta-naphthylamine

>  <TestSubstance_CASRN>
135-88-6

>  <TestSubstance_Description>
single chemical compound

>  <STRUCTURE_ChemicalName_IUPAC>
N-phenylnaphthalen-2-amine

>  <STRUCTURE_SMILES>
C1=C2C(=CC=C1NC3=CC=CC=C3)C=CC=C2

>  <STRUCTURE_Parent_SMILES>
C1=C2C(=CC=C1NC3=CC=CC=C3)C=CC=C2

>  <STRUCTURE_InChI>
InChI=1/C16H13N/c1-2-8-15(9-3-1)17-16-11-10-13-6-4-5-7-14(13)12-16/h1-12,17H

>  <STRUCTURE_InChIKey>
KEQFTVQCIQJIQW-UHFFFAOYAL

>  <StudyType>
Carcinogenicity

>  <Endpoint>
TD50; Tumor Target Sites

>  <Species>
rat; mouse; hamster

>  <ActivityOutcome_CPDBAS_Mutagenicity>
inactive

>  <ActivityScore_CPDBAS_Rat>
0

>  <TD50_Rat_Note>
no positive results

>  <TargetSites_Rat_Male>
no positive results

>  <TargetSites_Rat_Female>
no positive results

>  <ActivityOutcome_CPDBAS_Rat>
inactive

>  <ActivityScore_CPDBAS_Mouse>
0

>  <TD50_Mouse_Note>
no positive results

>  <TargetSites_Mouse_Male>
no positive results

>  <TargetSites_Mouse_Female>
no positive results

>  <ActivityOutcome_CPDBAS_Mouse>
inactive

>  <ActivityScore_CPDBAS_Hamster>
0

>  <TD50_Hamster_Note>
no positive results

>  <TargetSites_Hamster_Male>
no positive results

>  <TargetSites_Hamster_Female>
no positive results

>  <ActivityOutcome_CPDBAS_Hamster>
inactive

>  <ActivityOutcome_CPDBAS_SingleCellCall>
inactive

>  <ActivityOutcome_CPDBAS_MultiCellCall>
inactive

>  <ActivityOutcome_CPDBAS_MultiCellCall_Details>
multisex inactive; multispecies inactive

>  <NTP_TechnicalReport>
TR 333

>  <ChemicalPage_URL>
http://potency.berkeley.edu/chempages/PHENYL-beta-NAPHTHYLAMINE.html

$$$$



 17 17  0  0  0  0  0  0  0  0999 V2000
    1.9954   -4.6053    0.0000 C   0  0  0  0  0  0  0  0  0  0  0  0
    0.6625   -4.6053    0.0000 C   0  0  0  0  0  0  0  0  0  0  0  0
    0.0000   -3.4560    0.0000 C   0  0  0  0  0  0  0  0  0  0  0  0
    0.6625   -2.3066    0.0000 C   0  0  0  0  0  0  0  0  0  0  0  0
    1.9954   -2.3066    0.0000 C   0  0  0  0  0  0  0  0  0  0  0  0
    2.6578   -3.4560    0.0000 C   0  0  0  0  0  0  0  0  0  0  0  0
    3.9907   -3.4560    0.0000 C   0  0  0  0  0  0  0  0  0  0  0  0
    4.6532   -2.3066    0.0000 C   0  0  0  0  0  0  0  0  0  0  0  0
    5.9861   -2.3066    0.0000 O   0  0  0  0  0  0  0  0  0  0  0  0
    6.6486   -1.1493    0.0000 C   0  0  0  0  0  0  0  0  0  0  0  0
    7.9815   -1.1493    0.0000 N   0  0  0  0  0  0  0  0  0  0  0  0
    5.9861    0.0000    0.0000 O   0  0  0  0  0  0  0  0  0  0  0  0
    4.6532   -4.6053    0.0000 C   0  0  0  0  0  0  0  0  0  0  0  0
    5.9861   -4.6053    0.0000 O   0  0  0  0  0  0  0  0  0  0  0  0
    6.6486   -5.7626    0.0000 C   0  0  0  0  0  0  0  0  0  0  0  0
    7.9815   -5.7626    0.0000 N   0  0  0  0  0  0  0  0  0  0  0  0
    5.9861   -6.9120    0.0000 O   0  0  0  0  0  0  0  0  0  0  0  0
  1  2  2  0  0  0  0
  1  6  1  0  0  0  0
  2  3  1  0  0  0  0
  3  4  2  0  0  0  0
  4  5  1  0  0  0  0
  5  6  2  0  0  0  0
  6  7  1  0  0  0  0
  7  8  1  0  0  0  0
  7 13  1  0  0  0  0
  8  9  1  0  0  0  0
  9 10  1  0  0  0  0
 10 11  1  0  0  0  0
 10 12  2  0  0  0  0
 13 14  1  0  0  0  0
 14 15  1  0  0  0  0
 15 16  1  0  0  0  0
 15 17  2  0  0  0  0
M  END
>  <DSSTox_RID>
40817

>  <DSSTox_CID>
3041

>  <DSSTox_Generic_SID>
23041

>  <DSSTox_FileID>
1184_CPDBAS_v5d

>  <STRUCTURE_Formula>
C11H14N2O4

>  <STRUCTURE_MolecularWeight>
238.23986

>  <STRUCTURE_ChemicalType>
defined organic

>  <STRUCTURE_TestedForm_DefinedOrganic>
parent

>  <STRUCTURE_Shown>
tested chemical

>  <TestSubstance_ChemicalName>
2-Phenyl-1,3-propanediol dicarbamate

>  <TestSubstance_CASRN>
25451-15-4

>  <TestSubstance_Description>
single chemical compound

>  <STRUCTURE_ChemicalName_IUPAC>
2-phenylpropane-1,3-diyl dicarbamate

>  <STRUCTURE_SMILES>
C1=CC=CC=C1C(COC(N)=O)COC(N)=O

>  <STRUCTURE_Parent_SMILES>
C1=CC=CC=C1C(COC(N)=O)COC(N)=O

>  <STRUCTURE_InChI>
InChI=1/C11H14N2O4/c12-10(14)16-6-9(7-17-11(13)15)8-4-2-1-3-5-8/h1-5,9H,6-7H2,(H2,12,14)(H2,13,15)/f/h12-13H2

>  <STRUCTURE_InChIKey>
WKGXYQFOCVYPAC-KGJHZMDYCN

>  <StudyType>
Carcinogenicity

>  <Endpoint>
TD50; Tumor Target Sites

>  <Species>
rat; mouse

>  <TD50_Rat_mg>
1090

>  <TD50_Rat_mmol>
4.58

>  <ActivityScore_CPDBAS_Rat>
19

>  <TD50_Rat_Note>
TD50 is harmonic mean of more than one positive test

>  <TargetSites_Rat_Male>
testes

>  <TargetSites_Rat_Female>
liver

>  <ActivityOutcome_CPDBAS_Rat>
active

>  <TD50_Mouse_mg>
7420

>  <TD50_Mouse_mmol>
31.1

>  <ActivityScore_CPDBAS_Mouse>
11

>  <TD50_Mouse_Note>
TD50 is harmonic mean of more than one positive test

>  <TargetSites_Mouse_Male>
liver

>  <TargetSites_Mouse_Female>
liver

>  <ActivityOutcome_CPDBAS_Mouse>
active

>  <ActivityOutcome_CPDBAS_SingleCellCall>
active

>  <ActivityOutcome_CPDBAS_MultiCellCall>
active

>  <ActivityOutcome_CPDBAS_MultiCellCall_Details>
multisite active; multisex active; multispecies active

>  <Note_CPDBAS>
Rat added v5a; Mouse added v5a; Mutagenicity_SAL_CPDB added v5a; chemical added v5a

>  <ChemicalPage_URL>
http://potency.berkeley.edu/chempages/2-PHENYL-1%2C3-PROPANEDIOL%20DICARBAMATE.html

$$$$



 21 22  0  0  0  0  0  0  0  0999 V2000
   10.3694   -2.6500    0.0000 C   0  0  0  0  0  0  0  0  0  0  0  0
    0.0000   -0.6798    0.0000 C   0  0  0  0  0  0  0  0  0  0  0  0
    1.1406    0.0000    0.0000 C   0  0  0  0  0  0  0  0  0  0  0  0
    2.2928   -0.6798    0.0000 C   0  0  0  0  0  0  0  0  0  0  0  0
    2.2928   -1.9932    0.0000 C   0  0  0  0  0  0  0  0  0  0  0  0
    1.1406   -2.6500    0.0000 C   0  0  0  0  0  0  0  0  0  0  0  0
    0.0000   -1.9932    0.0000 N   0  0  0  0  0  0  0  0  0  0  0  0
    3.4450   -2.6500    0.0000 C   0  0  0  0  0  0  0  0  0  0  0  0
    4.6086   -1.9932    0.0000 C   0  0  0  0  0  0  0  0  0  0  0  0
    5.7608   -2.6500    0.0000 C   0  0  0  0  0  0  0  0  0  0  0  0
    6.9130   -1.9932    0.0000 C   0  0  0  0  0  0  0  0  0  0  0  0
    8.0766   -2.6500    0.0000 C   0  0  0  0  0  0  0  0  0  0  0  0
    9.2288   -1.9932    0.0000 C   0  0  0  0  0  0  0  0  0  0  0  0
    3.4450   -3.9980    0.0000 C   0  0  0  0  0  0  0  0  0  0  0  0
    4.6086   -4.6547    0.0000 C   0  0  0  0  0  0  0  0  0  0  0  0
    4.6086   -6.0028    0.0000 C   0  0  0  0  0  0  0  0  0  0  0  0
    3.4450   -6.6480    0.0000 C   0  0  0  0  0  0  0  0  0  0  0  0
    2.2928   -6.0028    0.0000 C   0  0  0  0  0  0  0  0  0  0  0  0
    2.2928   -4.6547    0.0000 C   0  0  0  0  0  0  0  0  0  0  0  0
   11.5216   -1.9932    0.0000 O   0  0  0  0  0  0  0  0  0  0  0  0
   10.3694   -3.9980    0.0000 O   0  0  0  0  0  0  0  0  0  0  0  0
  1 13  1  0  0  0  0
  1 20  1  0  0  0  0
  1 21  2  0  0  0  0
  2  7  1  0  0  0  0
  2  3  2  0  0  0  0
  3  4  1  0  0  0  0
  4  5  2  0  0  0  0
  5  8  1  0  0  0  0
  5  6  1  0  0  0  0
  6  7  2  0  0  0  0
  8 14  1  0  0  0  0
  8  9  2  0  0  0  0
  9 10  1  0  0  0  0
 10 11  1  0  0  0  0
 11 12  1  0  0  0  0
 12 13  1  0  0  0  0
 14 15  2  0  0  0  0
 14 19  1  0  0  0  0
 15 16  1  0  0  0  0
 16 17  2  0  0  0  0
 17 18  1  0  0  0  0
 18 19  2  0  0  0  0
M  END
>  <DSSTox_RID>
21133

>  <DSSTox_CID>
1133

>  <DSSTox_Generic_SID>
21133

>  <DSSTox_FileID>
1185_CPDBAS_v5d

>  <STRUCTURE_Formula>
C18H19NO2

>  <STRUCTURE_MolecularWeight>
281.349

>  <STRUCTURE_ChemicalType>
defined organic

>  <STRUCTURE_TestedForm_DefinedOrganic>
parent

>  <STRUCTURE_Shown>
tested chemical

>  <TestSubstance_ChemicalName>
(E)-7-Phenyl-7-(3-pyridyl)-6-heptenoic acid

>  <TestSubstance_CASRN>
89667-40-3

>  <TestSubstance_Description>
single chemical compound

>  <ChemicalNote>
stereochem

>  <STRUCTURE_ChemicalName_IUPAC>
(6E)-7-phenyl-7-pyridin-3-ylhept-6-enoic acid

>  <STRUCTURE_SMILES>
OC(=O)CCCC\C=C(\c1cccnc1)c2ccccc2

>  <STRUCTURE_Parent_SMILES>
OC(=O)CCCC\C=C(\c1cccnc1)c2ccccc2

>  <STRUCTURE_InChI>
InChI=1/C18H19NO2/c20-18(21)12-6-2-5-11-17(15-8-3-1-4-9-15)16-10-7-13-19-14-16/h1,3-4,7-11,13-14H,2,5-6,12H2,(H,20,21)/b17-11+/f/h20H

>  <STRUCTURE_InChIKey>
UWPBQLKEHGGKKD-DIPOAXDMDP

>  <StudyType>
Carcinogenicity

>  <Endpoint>
TD50; Tumor Target Sites

>  <Species>
rat; mouse

>  <ActivityScore_CPDBAS_Rat>
0

>  <TD50_Rat_Note>
no positive results

>  <TargetSites_Rat_Male>
no positive results

>  <TargetSites_Rat_Female>
no positive results

>  <ActivityOutcome_CPDBAS_Rat>
inactive

>  <ActivityScore_CPDBAS_Mouse>
0

>  <TD50_Mouse_Note>
no positive results

>  <TargetSites_Mouse_Male>
no positive results

>  <TargetSites_Mouse_Female>
no positive results

>  <ActivityOutcome_CPDBAS_Mouse>
inactive

>  <ActivityOutcome_CPDBAS_SingleCellCall>
inactive

>  <ActivityOutcome_CPDBAS_MultiCellCall>
inactive

>  <ActivityOutcome_CPDBAS_MultiCellCall_Details>
multisex inactive; multispecies inactive

>  <Note_CPDBAS>
Rat added v2a; Mouse added v2a

>  <ChemicalPage_URL>
http://potency.berkeley.edu/chempages/(E)-7-PHENYL-7-(3-PYRIDYL)-6-HEPTENOIC%20ACID.html

$$$$



 10 10  0  0  0  0  0  0  0  0999 V2000
    0.0000   -2.6612    0.0000 N   0  0  0  0  0  0  0  0  0  0  0  0
    1.1520   -1.9988    0.0000 C   0  0  0  0  0  0  0  0  0  0  0  0
    1.1520   -0.6682    0.0000 S   0  0  0  0  0  0  0  0  0  0  0  0
    2.3041   -2.6612    0.0000 N   0  0  0  0  0  0  0  0  0  0  0  0
    3.4561   -1.9988    0.0000 C   0  0  0  0  0  0  0  0  0  0  0  0
    3.4561   -0.6682    0.0000 C   0  0  0  0  0  0  0  0  0  0  0  0
    4.6082    0.0000    0.0000 C   0  0  0  0  0  0  0  0  0  0  0  0
    5.7602   -0.6682    0.0000 C   0  0  0  0  0  0  0  0  0  0  0  0
    5.7602   -1.9988    0.0000 C   0  0  0  0  0  0  0  0  0  0  0  0
    4.6082   -2.6612    0.0000 C   0  0  0  0  0  0  0  0  0  0  0  0
  1  2  1  0  0  0  0
  2  3  2  0  0  0  0
  2  4  1  0  0  0  0
  4  5  1  0  0  0  0
  5  6  2  0  0  0  0
  5 10  1  0  0  0  0
  6  7  1  0  0  0  0
  7  8  2  0  0  0  0
  8  9  1  0  0  0  0
  9 10  2  0  0  0  0
M  END
>  <DSSTox_RID>
21134

>  <DSSTox_CID>
1134

>  <DSSTox_Generic_SID>
21134

>  <DSSTox_FileID>
1186_CPDBAS_v5d

>  <STRUCTURE_Formula>
C7H8N2S

>  <STRUCTURE_MolecularWeight>
152.2168

>  <STRUCTURE_ChemicalType>
defined organic

>  <STRUCTURE_TestedForm_DefinedOrganic>
parent

>  <STRUCTURE_Shown>
tested chemical

>  <TestSubstance_ChemicalName>
1-Phenyl-2-thiourea

>  <TestSubstance_CASRN>
103-85-5

>  <TestSubstance_Description>
single chemical compound

>  <STRUCTURE_ChemicalName_IUPAC>
1-phenylthiourea

>  <STRUCTURE_SMILES>
NC(=S)NC1=CC=CC=C1

>  <STRUCTURE_Parent_SMILES>
NC(=S)NC1=CC=CC=C1

>  <STRUCTURE_InChI>
InChI=1/C7H8N2S/c8-7(10)9-6-4-2-1-3-5-6/h1-5H,(H3,8,9,10)/f/h9H,8H2

>  <STRUCTURE_InChIKey>
FULZLIGZKMKICU-ZLUQDFOACG

>  <StudyType>
Carcinogenicity

>  <Endpoint>
TD50; Tumor Target Sites

>  <Species>
rat; mouse

>  <ActivityOutcome_CPDBAS_Mutagenicity>
inactive

>  <ActivityScore_CPDBAS_Rat>
0

>  <TD50_Rat_Note>
no positive results

>  <TargetSites_Rat_Male>
no positive results

>  <TargetSites_Rat_Female>
no positive results

>  <ActivityOutcome_CPDBAS_Rat>
inactive

>  <ActivityScore_CPDBAS_Mouse>
0

>  <TD50_Mouse_Note>
no positive results

>  <TargetSites_Mouse_Male>
no positive results

>  <TargetSites_Mouse_Female>
no positive results

>  <ActivityOutcome_CPDBAS_Mouse>
inactive

>  <ActivityOutcome_CPDBAS_SingleCellCall>
inactive

>  <ActivityOutcome_CPDBAS_MultiCellCall>
inactive

>  <ActivityOutcome_CPDBAS_MultiCellCall_Details>
multisex inactive; multispecies inactive

>  <NTP_TechnicalReport>
TR 148

>  <ChemicalPage_URL>
http://potency.berkeley.edu/chempages/1-PHENYL-2-THIOUREA.html

$$$$



 19 21  0  0  0  0  0  0  0  0999 V2000
    4.6062    0.0000    0.0000 O   0  0  0  0  0  0  0  0  0  0  0  0
    3.4546   -0.6633    0.0000 C   0  0  0  0  0  0  0  0  0  0  0  0
    2.3031    0.0000    0.0000 C   0  0  0  0  0  0  0  0  0  0  0  0
    1.1515   -0.6633    0.0000 C   0  0  0  0  0  0  0  0  0  0  0  0
    1.1515   -1.9899    0.0000 C   0  0  0  0  0  0  0  0  0  0  0  0
    2.3031   -2.6532    0.0000 C   0  0  0  0  0  0  0  0  0  0  0  0
    3.4546   -1.9899    0.0000 C   0  0  0  0  0  0  0  0  0  0  0  0
    4.6062   -2.6532    0.0000 N   0  0  0  0  0  0  0  0  0  0  0  0
    5.7577   -1.9899    0.0000 N   0  0  0  0  0  0  0  0  0  0  0  0
    6.9093   -2.6532    0.0000 C   0  0  0  0  0  0  0  0  0  0  0  0
    8.0608   -1.9899    0.0000 C   0  0  0  0  0  0  0  0  0  0  0  0
    9.2124   -2.6532    0.0000 C   0  0  0  0  0  0  0  0  0  0  0  0
    9.2124   -3.9889    0.0000 C   0  0  0  0  0  0  0  0  0  0  0  0
    8.0608   -4.6522    0.0000 C   0  0  0  0  0  0  0  0  0  0  0  0
    6.9093   -3.9889    0.0000 C   0  0  0  0  0  0  0  0  0  0  0  0
    2.3031   -3.9889    0.0000 C   0  0  0  0  0  0  0  0  0  0  0  0
    1.1515   -4.6522    0.0000 C   0  0  0  0  0  0  0  0  0  0  0  0
    0.0000   -3.9889    0.0000 C   0  0  0  0  0  0  0  0  0  0  0  0
    0.0000   -2.6532    0.0000 C   0  0  0  0  0  0  0  0  0  0  0  0
  1  2  1  0  0  0  0
  2  3  2  0  0  0  0
  2  7  1  0  0  0  0
  3  4  1  0  0  0  0
  4  5  2  0  0  0  0
  5  6  1  0  0  0  0
  5 19  1  0  0  0  0
  6  7  2  0  0  0  0
  6 16  1  0  0  0  0
  7  8  1  0  0  0  0
  8  9  2  0  0  0  0
  9 10  1  0  0  0  0
 10 11  2  0  0  0  0
 10 15  1  0  0  0  0
 11 12  1  0  0  0  0
 12 13  2  0  0  0  0
 13 14  1  0  0  0  0
 14 15  2  0  0  0  0
 16 17  2  0  0  0  0
 17 18  1  0  0  0  0
 18 19  2  0  0  0  0
M  END
>  <DSSTox_RID>
21135

>  <DSSTox_CID>
1135

>  <DSSTox_Generic_SID>
21135

>  <DSSTox_FileID>
1187_CPDBAS_v5d

>  <STRUCTURE_Formula>
C16H12N2O

>  <STRUCTURE_MolecularWeight>
248.2793

>  <STRUCTURE_ChemicalType>
defined organic

>  <STRUCTURE_TestedForm_DefinedOrganic>
parent

>  <STRUCTURE_Shown>
tested chemical

>  <TestSubstance_ChemicalName>
1-Phenylazo-2-naphthol

>  <TestSubstance_CASRN>
842-07-9

>  <TestSubstance_Description>
single chemical compound

>  <STRUCTURE_ChemicalName_IUPAC>
1-[(E)-phenyldiazenyl]-2-naphthol

>  <STRUCTURE_SMILES>
OC1=CC=C2C(=C1/N=N/C3=CC=CC=C3)C=CC=C2

>  <STRUCTURE_Parent_SMILES>
OC1=CC=C2C(=C1/N=N/C3=CC=CC=C3)C=CC=C2

>  <STRUCTURE_InChI>
InChI=1/C16H12N2O/c19-15-11-10-12-6-4-5-9-14(12)16(15)18-17-13-7-2-1-3-8-13/h1-11,19H/b18-17+

>  <STRUCTURE_InChIKey>
MRQIXHXHHPWVIL-ISLYRVAYBO

>  <StudyType>
Carcinogenicity

>  <Endpoint>
TD50; Tumor Target Sites

>  <Species>
rat; mouse

>  <ActivityOutcome_CPDBAS_Mutagenicity>
active

>  <TD50_Rat_mg>
29.4

>  <TD50_Rat_mmol>
0.118

>  <ActivityScore_CPDBAS_Rat>
35

>  <TD50_Rat_Note>
TD50 is harmonic mean of more than one positive test

>  <TargetSites_Rat_Male>
liver

>  <TargetSites_Rat_Female>
liver

>  <ActivityOutcome_CPDBAS_Rat>
active

>  <ActivityScore_CPDBAS_Mouse>
0

>  <TD50_Mouse_Note>
no positive results

>  <TargetSites_Mouse_Male>
no positive results

>  <TargetSites_Mouse_Female>
no positive results

>  <ActivityOutcome_CPDBAS_Mouse>
inactive

>  <ActivityOutcome_CPDBAS_SingleCellCall>
active

>  <ActivityOutcome_CPDBAS_MultiCellCall>
active

>  <ActivityOutcome_CPDBAS_MultiCellCall_Details>
multisex active

>  <NTP_TechnicalReport>
TR 226

>  <ChemicalPage_URL>
http://potency.berkeley.edu/chempages/1-PHENYLAZO-2-NAPHTHOL.html

$$$$



 23 25  0  0  0  0  0  0  0  0999 V2000
    3.4209   -7.1079    0.0000 O   0  0  0  0  0  0  0  0  0  0  0  0
    4.2097   -6.0342    0.0000 C   0  0  0  0  0  0  0  0  0  0  0  0
    3.7915   -4.7703    0.0000 N   0  0  0  0  0  0  0  0  0  0  0  0
    2.5277   -4.3522    0.0000 C   0  0  0  0  0  0  0  0  0  0  0  0
    1.5394   -5.2454    0.0000 C   0  0  0  0  0  0  0  0  0  0  0  0
    0.2756   -4.8368    0.0000 C   0  0  0  0  0  0  0  0  0  0  0  0
    0.0000   -3.5350    0.0000 C   0  0  0  0  0  0  0  0  0  0  0  0
    0.9883   -2.6417    0.0000 C   0  0  0  0  0  0  0  0  0  0  0  0
    2.2521   -3.0598    0.0000 C   0  0  0  0  0  0  0  0  0  0  0  0
    4.8748   -3.9816    0.0000 N   0  0  0  0  0  0  0  0  0  0  0  0
    4.8748   -2.6512    0.0000 C   0  0  0  0  0  0  0  0  0  0  0  0
    3.7155   -1.9955    0.0000 C   0  0  0  0  0  0  0  0  0  0  0  0
    3.7155   -0.6652    0.0000 C   0  0  0  0  0  0  0  0  0  0  0  0
    4.8748    0.0000    0.0000 C   0  0  0  0  0  0  0  0  0  0  0  0
    6.0247   -0.6652    0.0000 C   0  0  0  0  0  0  0  0  0  0  0  0
    6.0247   -1.9955    0.0000 C   0  0  0  0  0  0  0  0  0  0  0  0
    5.9486   -4.7703    0.0000 C   0  0  0  0  0  0  0  0  0  0  0  0
    7.2125   -4.3522    0.0000 O   0  0  0  0  0  0  0  0  0  0  0  0
    5.5305   -6.0342    0.0000 C   0  0  0  0  0  0  0  0  0  0  0  0
    6.3192   -7.1079    0.0000 C   0  0  0  0  0  0  0  0  0  0  0  0
    7.6401   -6.9654    0.0000 C   0  0  0  0  0  0  0  0  0  0  0  0
    8.1817   -5.7586    0.0000 C   0  0  0  0  0  0  0  0  0  0  0  0
    9.5026   -5.6160    0.0000 C   0  0  0  0  0  0  0  0  0  0  0  0
  1  2  2  0  0  0  0
  2  3  1  0  0  0  0
  2 19  1  0  0  0  0
  3  4  1  0  0  0  0
  3 10  1  0  0  0  0
  4  5  2  0  0  0  0
  4  9  1  0  0  0  0
  5  6  1  0  0  0  0
  6  7  2  0  0  0  0
  7  8  1  0  0  0  0
  8  9  2  0  0  0  0
 10 11  1  0  0  0  0
 10 17  1  0  0  0  0
 11 12  2  0  0  0  0
 11 16  1  0  0  0  0
 12 13  1  0  0  0  0
 13 14  2  0  0  0  0
 14 15  1  0  0  0  0
 15 16  2  0  0  0  0
 17 18  2  0  0  0  0
 17 19  1  0  0  0  0
 19 20  1  0  0  0  0
 20 21  1  0  0  0  0
 21 22  1  0  0  0  0
 22 23  1  0  0  0  0
M  END
>  <DSSTox_RID>
21136

>  <DSSTox_CID>
1136

>  <DSSTox_Generic_SID>
21136

>  <DSSTox_FileID>
1188_CPDBAS_v5d

>  <STRUCTURE_Formula>
C19H20N2O2

>  <STRUCTURE_MolecularWeight>
308.3743

>  <STRUCTURE_ChemicalType>
defined organic

>  <STRUCTURE_TestedForm_DefinedOrganic>
parent

>  <STRUCTURE_Shown>
tested chemical

>  <TestSubstance_ChemicalName>
Phenylbutazone

>  <TestSubstance_CASRN>
50-33-9

>  <TestSubstance_Description>
single chemical compound

>  <STRUCTURE_ChemicalName_IUPAC>
4-butyl-1,2-diphenylpyrazolidine-3,5-dione

>  <STRUCTURE_SMILES>
O=C1N(C2=CC=CC=C2)N(C3=CC=CC=C3)C(=O)C1CCCC

>  <STRUCTURE_Parent_SMILES>
O=C1N(C2=CC=CC=C2)N(C3=CC=CC=C3)C(=O)C1CCCC

>  <STRUCTURE_InChI>
InChI=1/C19H20N2O2/c1-2-3-14-17-18(22)20(15-10-6-4-7-11-15)21(19(17)23)16-12-8-5-9-13-16/h4-13,17H,2-3,14H2,1H3

>  <STRUCTURE_InChIKey>
VYMDGNCVAMGZFE-UHFFFAOYAL

>  <StudyType>
Carcinogenicity

>  <Endpoint>
TD50; Tumor Target Sites

>  <Species>
rat; mouse

>  <ActivityOutcome_CPDBAS_Mutagenicity>
inactive

>  <TD50_Rat_mg>
1160

>  <TD50_Rat_mmol>
3.76

>  <ActivityScore_CPDBAS_Rat>
20

>  <TargetSites_Rat_Male>
no positive results

>  <TargetSites_Rat_Female>
kidney

>  <ActivityOutcome_CPDBAS_Rat>
active

>  <TD50_Mouse_mg>
353

>  <TD50_Mouse_mmol>
1.14

>  <ActivityScore_CPDBAS_Mouse>
28

>  <TargetSites_Mouse_Male>
liver

>  <TargetSites_Mouse_Female>
no positive results

>  <ActivityOutcome_CPDBAS_Mouse>
active

>  <ActivityOutcome_CPDBAS_SingleCellCall>
active

>  <ActivityOutcome_CPDBAS_MultiCellCall>
active

>  <ActivityOutcome_CPDBAS_MultiCellCall_Details>
multisite active; multisex active; multispecies active

>  <NTP_TechnicalReport>
TR 367

>  <ChemicalPage_URL>
http://potency.berkeley.edu/chempages/PHENYLBUTAZONE.html

$$$$



  8  8  0  0  0  0  0  0  0  0999 V2000
    4.6080   -2.6588    0.0000 N   0  0  0  0  0  0  0  0  0  0  0  0
    3.4560   -1.9953    0.0000 C   0  0  0  0  0  0  0  0  0  0  0  0
    2.3040   -2.6588    0.0000 C   0  0  0  0  0  0  0  0  0  0  0  0
    1.1520   -1.9953    0.0000 C   0  0  0  0  0  0  0  0  0  0  0  0
    1.1520   -0.6635    0.0000 C   0  0  0  0  0  0  0  0  0  0  0  0
    2.3040    0.0000    0.0000 C   0  0  0  0  0  0  0  0  0  0  0  0
    3.4560   -0.6635    0.0000 C   0  0  0  0  0  0  0  0  0  0  0  0
    0.0000   -2.6588    0.0000 N   0  0  0  0  0  0  0  0  0  0  0  0
  1  2  1  0  0  0  0
  2  3  2  0  0  0  0
  2  7  1  0  0  0  0
  3  4  1  0  0  0  0
  4  5  2  0  0  0  0
  4  8  1  0  0  0  0
  5  6  1  0  0  0  0
  6  7  2  0  0  0  0
M  END
>  <DSSTox_RID>
21137

>  <DSSTox_CID>
1137

>  <DSSTox_Generic_SID>
21137

>  <DSSTox_FileID>
1189_CPDBAS_v5d

>  <STRUCTURE_Formula>
C6H8N2

>  <STRUCTURE_MolecularWeight>
108.1411

>  <STRUCTURE_ChemicalType>
defined organic

>  <STRUCTURE_TestedForm_DefinedOrganic>
parent

>  <STRUCTURE_Shown>
tested chemical

>  <TestSubstance_ChemicalName>
m-Phenylenediamine

>  <TestSubstance_CASRN>
108-45-2

>  <TestSubstance_Description>
single chemical compound

>  <STRUCTURE_ChemicalName_IUPAC>
benzene-1,3-diamine

>  <STRUCTURE_SMILES>
NC1=CC(=CC=C1)N

>  <STRUCTURE_Parent_SMILES>
NC1=CC(=CC=C1)N

>  <STRUCTURE_InChI>
InChI=1/C6H8N2/c7-5-2-1-3-6(8)4-5/h1-4H,7-8H2

>  <STRUCTURE_InChIKey>
WZCQRUWWHSTZEM-UHFFFAOYAM

>  <StudyType>
Carcinogenicity

>  <Endpoint>
TD50; Tumor Target Sites

>  <Species>
mouse

>  <ActivityOutcome_CPDBAS_Mutagenicity>
active

>  <ActivityScore_CPDBAS_Mouse>
0

>  <TD50_Mouse_Note>
no positive results

>  <TargetSites_Mouse_Male>
no positive results

>  <TargetSites_Mouse_Female>
no positive results

>  <ActivityOutcome_CPDBAS_Mouse>
inactive

>  <ActivityOutcome_CPDBAS_SingleCellCall>
inactive

>  <ActivityOutcome_CPDBAS_MultiCellCall>
inactive

>  <ActivityOutcome_CPDBAS_MultiCellCall_Details>
multisex inactive

>  <ChemicalPage_URL>
http://potency.berkeley.edu/chempages/m-PHENYLENEDIAMINE.html

$$$$



  8  8  0  0  0  0  0  0  0  0999 V2000
    0.0000   -1.1545    0.0000 N   0  0  0  0  0  0  0  0  0  0  0  0
    1.3300   -1.1545    0.0000 C   0  0  0  0  0  0  0  0  0  0  0  0
    1.9950    0.0000    0.0000 C   0  0  0  0  0  0  0  0  0  0  0  0
    3.3250    0.0000    0.0000 C   0  0  0  0  0  0  0  0  0  0  0  0
    3.9900   -1.1545    0.0000 C   0  0  0  0  0  0  0  0  0  0  0  0
    3.3250   -2.3036    0.0000 C   0  0  0  0  0  0  0  0  0  0  0  0
    1.9950   -2.3036    0.0000 C   0  0  0  0  0  0  0  0  0  0  0  0
    5.3201   -1.1545    0.0000 N   0  0  0  0  0  0  0  0  0  0  0  0
  1  2  1  0  0  0  0
  2  3  2  0  0  0  0
  2  7  1  0  0  0  0
  3  4  1  0  0  0  0
  4  5  2  0  0  0  0
  5  6  1  0  0  0  0
  5  8  1  0  0  0  0
  6  7  2  0  0  0  0
M  END
>  <DSSTox_RID>
21138

>  <DSSTox_CID>
1138

>  <DSSTox_Generic_SID>
21138

>  <DSSTox_FileID>
1190_CPDBAS_v5d

>  <STRUCTURE_Formula>
C6H8N2

>  <STRUCTURE_MolecularWeight>
108.1411

>  <STRUCTURE_ChemicalType>
defined organic

>  <STRUCTURE_TestedForm_DefinedOrganic>
parent

>  <STRUCTURE_Shown>
tested chemical

>  <TestSubstance_ChemicalName>
p-Phenylenediamine

>  <TestSubstance_CASRN>
106-50-3

>  <TestSubstance_Description>
single chemical compound

>  <STRUCTURE_ChemicalName_IUPAC>
benzene-1,4-diamine

>  <STRUCTURE_SMILES>
NC1=CC=C(C=C1)N

>  <STRUCTURE_Parent_SMILES>
NC1=CC=C(C=C1)N

>  <STRUCTURE_InChI>
InChI=1/C6H8N2/c7-5-1-2-6(8)4-3-5/h1-4H,7-8H2

>  <STRUCTURE_InChIKey>
CBCKQZAAMUWICA-UHFFFAOYAD

>  <StudyType>
Carcinogenicity

>  <Endpoint>
TD50; Tumor Target Sites

>  <Species>
rat

>  <ActivityOutcome_CPDBAS_Mutagenicity>
active

>  <ActivityScore_CPDBAS_Rat>
0

>  <TD50_Rat_Note>
no positive results

>  <TargetSites_Rat_Male>
no positive results

>  <TargetSites_Rat_Female>
no positive results

>  <ActivityOutcome_CPDBAS_Rat>
inactive

>  <ActivityOutcome_CPDBAS_SingleCellCall>
inactive

>  <ActivityOutcome_CPDBAS_MultiCellCall>
inactive

>  <ActivityOutcome_CPDBAS_MultiCellCall_Details>
multisex inactive

>  <ChemicalPage_URL>
http://potency.berkeley.edu/chempages/p-PHENYLENEDIAMINE.html

$$$$



 22 23  0  0  0  0  0  0  0  0999 V2000
    0.0000   -8.0521    0.0000 O   0  0  0  0  0  0  0  0  0  0  0  0
    1.9889   -2.3029    0.0000 C   0  0  0  0  0  0  0  0  0  0  0  0
    0.6603   -2.3029    0.0000 C   0  0  0  0  0  0  0  0  0  0  0  0
    2.6572   -1.1434    0.0000 C   0  0  0  0  0  0  0  0  0  0  0  0
    0.0000   -1.1434    0.0000 C   0  0  0  0  0  0  0  0  0  0  0  0
    1.9889    0.0000    0.0000 C   0  0  0  0  0  0  0  0  0  0  0  0
    0.6603    0.0000    0.0000 C   0  0  0  0  0  0  0  0  0  0  0  0
    0.0000   -3.4544    0.0000 C   0  0  0  0  0  0  0  0  0  0  0  0
    0.6603   -4.5978    0.0000 C   0  0  0  0  0  0  0  0  0  0  0  0
    0.0000   -5.7492    0.0000 O   0  0  0  0  0  0  0  0  0  0  0  0
    0.6603   -6.9087    0.0000 C   0  0  0  0  0  0  0  0  0  0  0  0
    1.9889   -6.9087    0.0000 C   0  0  0  0  0  0  0  0  0  0  0  0
    2.6572   -5.7492    0.0000 C   0  0  0  0  0  0  0  0  0  0  0  0
    5.9827   -4.5978    0.0000 C   0  0  0  0  0  0  0  0  0  0  0  0
    6.6430   -5.7492    0.0000 C   0  0  0  0  0  0  0  0  0  0  0  0
    4.6461   -4.5978    0.0000 C   0  0  0  0  0  0  0  0  0  0  0  0
    5.9827   -6.9087    0.0000 C   0  0  0  0  0  0  0  0  0  0  0  0
    3.9858   -5.7492    0.0000 C   0  0  0  0  0  0  0  0  0  0  0  0
    4.6461   -6.9087    0.0000 C   0  0  0  0  0  0  0  0  0  0  0  0
    6.6430   -8.0521    0.0000 O   0  0  0  0  0  0  0  0  0  0  0  0
    7.9796   -8.0521    0.0000 C   0  0  0  0  0  0  0  0  0  0  0  0
    7.9796   -5.7492    0.0000 O   0  0  0  0  0  0  0  0  0  0  0  0
  1 11  2  0  0  0  0
  2  3  1  0  0  0  0
  2  4  2  0  0  0  0
  3  5  2  0  0  0  0
  3  8  1  0  0  0  0
  4  6  1  0  0  0  0
  5  7  1  0  0  0  0
  6  7  2  0  0  0  0
  8  9  1  0  0  0  0
  9 10  1  0  0  0  0
 10 11  1  0  0  0  0
 11 12  1  0  0  0  0
 12 13  2  0  0  0  0
 13 18  1  0  0  0  0
 14 15  1  0  0  0  0
 14 16  2  0  0  0  0
 15 17  2  0  0  0  0
 15 22  1  0  0  0  0
 16 18  1  0  0  0  0
 17 19  1  0  0  0  0
 17 20  1  0  0  0  0
 18 19  2  0  0  0  0
 20 21  1  0  0  0  0
M  END
>  <DSSTox_RID>
21143

>  <DSSTox_CID>
1143

>  <DSSTox_Generic_SID>
21143

>  <DSSTox_FileID>
1195_CPDBAS_v5d

>  <STRUCTURE_Formula>
C18H18O4

>  <STRUCTURE_MolecularWeight>
298.3331

>  <STRUCTURE_ChemicalType>
defined organic

>  <STRUCTURE_TestedForm_DefinedOrganic>
parent

>  <STRUCTURE_Shown>
tested chemical

>  <TestSubstance_ChemicalName>
Phenylethyl-3-methylcaffeate

>  <TestSubstance_CASRN>
71835-85-3

>  <TestSubstance_Description>
single chemical compound

>  <ChemicalNote>
stereochem

>  <STRUCTURE_ChemicalName_IUPAC>
2-phenylethyl (2E)-3-[4-hydroxy-3-(methyloxy)phenyl]prop-2-enoate

>  <STRUCTURE_SMILES>
Oc1ccc(cc1OC)/C=C/C(=O)OCCc2ccccc2

>  <STRUCTURE_Parent_SMILES>
Oc1ccc(cc1OC)/C=C/C(=O)OCCc2ccccc2

>  <STRUCTURE_InChI>
InChI=1/C18H18O4/c1-21-17-13-15(7-9-16(17)19)8-10-18(20)22-12-11-14-5-3-2-4-6-14/h2-10,13,19H,11-12H2,1H3/b10-8+

>  <STRUCTURE_InChIKey>
CZQNYPBIOHVQQN-CSKARUKUBK

>  <StudyType>
Carcinogenicity

>  <Endpoint>
TD50; Tumor Target Sites

>  <Species>
rat

>  <ActivityScore_CPDBAS_Rat>
0

>  <TD50_Rat_Note>
no positive results

>  <TargetSites_Rat_Male>
no positive results

>  <ActivityOutcome_CPDBAS_Rat>
inactive

>  <ActivityOutcome_CPDBAS_SingleCellCall>
inactive

>  <Note_CPDBAS>
Rat added v2a

>  <ChemicalPage_URL>
http://potency.berkeley.edu/chempages/PHENYLETHYL-3-METHYLCAFFEATE.html

$$$$



 11 12  0  0  0  0  0  0  0  0999 V2000
    3.9880   -1.1486    0.0000 O   0  0  0  0  0  0  0  0  0  0  0  0
    2.6611   -1.1486    0.0000 C   0  0  0  0  0  0  0  0  0  0  0  0
    1.9976   -2.3043    0.0000 C   0  0  0  0  0  0  0  0  0  0  0  0
    0.6635   -2.3043    0.0000 C   0  0  0  0  0  0  0  0  0  0  0  0
    0.0000   -1.1486    0.0000 C   0  0  0  0  0  0  0  0  0  0  0  0
    0.6635    0.0000    0.0000 C   0  0  0  0  0  0  0  0  0  0  0  0
    1.9976    0.0000    0.0000 C   0  0  0  0  0  0  0  0  0  0  0  0
    4.6515   -2.3043    0.0000 C   0  0  0  0  0  0  0  0  0  0  0  0
    5.9856   -2.3043    0.0000 C   0  0  3  0  0  0  0  0  0  0  0  0
    7.1342   -1.6409    0.0000 C   0  0  0  0  0  0  0  0  0  0  0  0
    7.1342   -2.9678    0.0000 O   0  0  0  0  0  0  0  0  0  0  0  0
  1  2  1  0  0  0  0
  1  8  1  0  0  0  0
  2  3  2  0  0  0  0
  2  7  1  0  0  0  0
  3  4  1  0  0  0  0
  4  5  2  0  0  0  0
  5  6  1  0  0  0  0
  6  7  2  0  0  0  0
  8  9  1  0  0  0  0
  9 10  1  0  0  0  0
  9 11  1  0  0  0  0
 10 11  1  0  0  0  0
M  END
>  <DSSTox_RID>
21145

>  <DSSTox_CID>
1145

>  <DSSTox_Generic_SID>
21145

>  <DSSTox_FileID>
1197_CPDBAS_v5d

>  <STRUCTURE_Formula>
C9H10O2

>  <STRUCTURE_MolecularWeight>
150.1745

>  <STRUCTURE_ChemicalType>
defined organic

>  <STRUCTURE_TestedForm_DefinedOrganic>
parent

>  <STRUCTURE_Shown>
tested chemical

>  <TestSubstance_ChemicalName>
Phenylglycidyl ether

>  <TestSubstance_CASRN>
122-60-1

>  <TestSubstance_Description>
single chemical compound

>  <STRUCTURE_ChemicalName_IUPAC>
2-(phenoxymethyl)oxirane

>  <STRUCTURE_SMILES>
O(C1=CC=CC=C1)CC2CO2

>  <STRUCTURE_Parent_SMILES>
O(C1=CC=CC=C1)CC2CO2

>  <STRUCTURE_InChI>
InChI=1/C9H10O2/c1-2-4-8(5-3-1)10-6-9-7-11-9/h1-5,9H,6-7H2

>  <STRUCTURE_InChIKey>
FQYUMYWMJTYZTK-UHFFFAOYAO

>  <StudyType>
Carcinogenicity

>  <Endpoint>
TD50; Tumor Target Sites

>  <Species>
rat

>  <ActivityOutcome_CPDBAS_Mutagenicity>
active

>  <TD50_Rat_mg>
44

>  <TD50_Rat_mmol>
0.293

>  <ActivityScore_CPDBAS_Rat>
31

>  <TD50_Rat_Note>
TD50 is harmonic mean of more than one positive test

>  <TargetSites_Rat_Male>
nasal cavity

>  <TargetSites_Rat_Female>
nasal cavity

>  <ActivityOutcome_CPDBAS_Rat>
active

>  <ActivityOutcome_CPDBAS_SingleCellCall>
active

>  <ActivityOutcome_CPDBAS_MultiCellCall>
active

>  <ActivityOutcome_CPDBAS_MultiCellCall_Details>
multisex active

>  <ChemicalPage_URL>
http://potency.berkeley.edu/chempages/PHENYLGLYCIDYL%20ETHER.html

$$$$



 15 15  0  0  0  0  0  0  0  0999 V2000
    3.4621   -2.0037    0.0000 C   0  0  0  0  0  0  0  0  0  0  0  0
    4.6161   -2.6631    0.0000 C   0  0  0  0  0  0  0  0  0  0  0  0
    5.7701   -2.0037    0.0000 C   0  0  0  0  0  0  0  0  0  0  0  0
    6.9114   -2.6631    0.0000 C   0  0  0  0  0  0  0  0  0  0  0  0
    8.0655   -2.0037    0.0000 C   0  0  0  0  0  0  0  0  0  0  0  0
    9.2195   -2.6631    0.0000 C   0  0  0  0  0  0  0  0  0  0  0  0
   10.3735   -2.0037    0.0000 C   0  0  0  0  0  0  0  0  0  0  0  0
   10.3735   -0.6721    0.0000 C   0  0  0  0  0  0  0  0  0  0  0  0
   11.5275    0.0000    0.0000 C   0  0  0  0  0  0  0  0  0  0  0  0
   12.6815   -0.6721    0.0000 C   0  0  0  0  0  0  0  0  0  0  0  0
   12.6815   -2.0037    0.0000 C   0  0  0  0  0  0  0  0  0  0  0  0
   11.5275   -2.6631    0.0000 C   0  0  0  0  0  0  0  0  0  0  0  0
    2.3080   -2.6631    0.0000 N   0  0  0  0  0  0  0  0  0  0  0  0
    1.1540   -2.0037    0.0000 C   0  0  0  0  0  0  0  0  0  0  0  0
    0.0000   -1.3316    0.0000 S   0  0  0  0  0  0  0  0  0  0  0  0
  1  2  1  0  0  0  0
  1 13  1  0  0  0  0
  2  3  1  0  0  0  0
  3  4  1  0  0  0  0
  4  5  1  0  0  0  0
  5  6  1  0  0  0  0
  6  7  1  0  0  0  0
  7  8  2  0  0  0  0
  7 12  1  0  0  0  0
  8  9  1  0  0  0  0
  9 10  2  0  0  0  0
 10 11  1  0  0  0  0
 11 12  2  0  0  0  0
 13 14  2  0  0  0  0
 14 15  2  0  0  0  0
M  END
>  <DSSTox_RID>
21146

>  <DSSTox_CID>
1146

>  <DSSTox_Generic_SID>
21146

>  <DSSTox_FileID>
1198_CPDBAS_v5d

>  <STRUCTURE_Formula>
C13H17NS

>  <STRUCTURE_MolecularWeight>
219.3458

>  <STRUCTURE_ChemicalType>
defined organic

>  <STRUCTURE_TestedForm_DefinedOrganic>
parent

>  <STRUCTURE_Shown>
tested chemical

>  <TestSubstance_ChemicalName>
6-Phenylhexyl isothiocyanate

>  <TestSubstance_CASRN>
133920-06-6

>  <TestSubstance_Description>
single chemical compound

>  <STRUCTURE_ChemicalName_IUPAC>
(6-isothiocyanatohexyl)benzene

>  <STRUCTURE_SMILES>
S=C=NCCCCCCC1=CC=CC=C1

>  <STRUCTURE_Parent_SMILES>
S=C=NCCCCCCC1=CC=CC=C1

>  <STRUCTURE_InChI>
InChI=1/C13H17NS/c15-12-14-11-7-2-1-4-8-13-9-5-3-6-10-13/h3,5-6,9-10H,1-2,4,7-8,11H2

>  <STRUCTURE_InChIKey>
VJNWEQGIPZMBMA-UHFFFAOYAX

>  <StudyType>
Carcinogenicity

>  <Endpoint>
TD50; Tumor Target Sites

>  <Species>
rat

>  <ActivityScore_CPDBAS_Rat>
0

>  <TD50_Rat_Note>
no positive results

>  <TargetSites_Rat_Male>
no positive results

>  <ActivityOutcome_CPDBAS_Rat>
inactive

>  <ActivityOutcome_CPDBAS_SingleCellCall>
inactive

>  <Note_CPDBAS>
structure corrected v5a

>  <ChemicalPage_URL>
http://potency.berkeley.edu/chempages/6-PHENYLHEXYL%20ISOTHIOCYANATE.html

$$$$



  8  8  0  0  0  0  0  0  0  0999 V2000
    0.0000    0.0000    0.0000 N   0  0  0  0  0  0  0  0  0  0  0  0
    0.6654   -1.1540    0.0000 N   0  0  0  0  0  0  0  0  0  0  0  0
    1.9962   -1.1540    0.0000 C   0  0  0  0  0  0  0  0  0  0  0  0
    2.6569    0.0000    0.0000 C   0  0  0  0  0  0  0  0  0  0  0  0
    3.9877    0.0000    0.0000 C   0  0  0  0  0  0  0  0  0  0  0  0
    4.6531   -1.1540    0.0000 C   0  0  0  0  0  0  0  0  0  0  0  0
    3.9877   -2.3033    0.0000 C   0  0  0  0  0  0  0  0  0  0  0  0
    2.6569   -2.3033    0.0000 C   0  0  0  0  0  0  0  0  0  0  0  0
  1  2  1  0  0  0  0
  2  3  1  0  0  0  0
  3  4  2  0  0  0  0
  3  8  1  0  0  0  0
  4  5  1  0  0  0  0
  5  6  2  0  0  0  0
  6  7  1  0  0  0  0
  7  8  2  0  0  0  0
M  END
>  <DSSTox_RID>
21147

>  <DSSTox_CID>
1147

>  <DSSTox_Generic_SID>
21147

>  <DSSTox_FileID>
1199_CPDBAS_v5d

>  <STRUCTURE_Formula>
C6H8N2

>  <STRUCTURE_MolecularWeight>
108.1426

>  <STRUCTURE_ChemicalType>
defined organic

>  <STRUCTURE_TestedForm_DefinedOrganic>
parent

>  <STRUCTURE_Shown>
tested chemical

>  <TestSubstance_ChemicalName>
Phenylhydrazine

>  <TestSubstance_CASRN>
100-63-0

>  <TestSubstance_Description>
single chemical compound

>  <STRUCTURE_ChemicalName_IUPAC>
phenylhydrazine

>  <STRUCTURE_SMILES>
NNC1=CC=CC=C1

>  <STRUCTURE_Parent_SMILES>
NNC1=CC=CC=C1

>  <STRUCTURE_InChI>
InChI=1/C6H8N2/c7-8-6-4-2-1-3-5-6/h1-5,8H,7H2

>  <STRUCTURE_InChIKey>
HKOOXMFOFWEVGF-UHFFFAOYAN

>  <StudyType>
Carcinogenicity

>  <Endpoint>
TD50; Tumor Target Sites

>  <Species>
mouse

>  <ActivityOutcome_CPDBAS_Mutagenicity>
active

>  <ActivityScore_CPDBAS_Mouse>
0

>  <TD50_Mouse_Note>
no positive results

>  <TargetSites_Mouse_Female>
no positive results

>  <ActivityOutcome_CPDBAS_Mouse>
inactive

>  <ActivityOutcome_CPDBAS_SingleCellCall>
inactive

>  <ChemicalPage_URL>
http://potency.berkeley.edu/chempages/PHENYLHYDRAZINE.html

$$$$



 13 14  0  0  0  0  0  0  0  0999 V2000
    2.6607    0.0000    0.0000 O   0  0  0  0  0  0  0  0  0  0  0  0
    1.9955   -1.1574    0.0000 C   0  0  0  0  0  0  0  0  0  0  0  0
    2.6607   -2.3082    0.0000 C   0  0  0  0  0  0  0  0  0  0  0  0
    1.9955   -3.4589    0.0000 C   0  0  0  0  0  0  0  0  0  0  0  0
    0.6652   -3.4589    0.0000 C   0  0  0  0  0  0  0  0  0  0  0  0
    0.0000   -2.3082    0.0000 C   0  0  0  0  0  0  0  0  0  0  0  0
    0.6652   -1.1574    0.0000 C   0  0  0  0  0  0  0  0  0  0  0  0
    3.9910   -2.3082    0.0000 C   0  0  0  0  0  0  0  0  0  0  0  0
    4.6562   -1.1574    0.0000 C   0  0  0  0  0  0  0  0  0  0  0  0
    5.9866   -1.1574    0.0000 C   0  0  0  0  0  0  0  0  0  0  0  0
    6.6517   -2.3082    0.0000 C   0  0  0  0  0  0  0  0  0  0  0  0
    5.9866   -3.4589    0.0000 C   0  0  0  0  0  0  0  0  0  0  0  0
    4.6562   -3.4589    0.0000 C   0  0  0  0  0  0  0  0  0  0  0  0
  1  2  1  0  0  0  0
  2  3  2  0  0  0  0
  2  7  1  0  0  0  0
  3  4  1  0  0  0  0
  3  8  1  0  0  0  0
  4  5  2  0  0  0  0
  5  6  1  0  0  0  0
  6  7  2  0  0  0  0
  8  9  2  0  0  0  0
  8 13  1  0  0  0  0
  9 10  1  0  0  0  0
 10 11  2  0  0  0  0
 11 12  1  0  0  0  0
 12 13  2  0  0  0  0
M  END
>  <DSSTox_RID>
21151

>  <DSSTox_CID>
1151

>  <DSSTox_Generic_SID>
21151

>  <DSSTox_FileID>
1203_CPDBAS_v5d

>  <STRUCTURE_Formula>
C12H10O

>  <STRUCTURE_MolecularWeight>
170.2072

>  <STRUCTURE_ChemicalType>
defined organic

>  <STRUCTURE_TestedForm_DefinedOrganic>
parent

>  <STRUCTURE_Shown>
tested chemical

>  <TestSubstance_ChemicalName>
o-Phenylphenol

>  <TestSubstance_CASRN>
90-43-7

>  <TestSubstance_Description>
single chemical compound

>  <STRUCTURE_ChemicalName_IUPAC>
biphenyl-2-ol

>  <STRUCTURE_SMILES>
OC1=C(C=CC=C1)C2=CC=CC=C2

>  <STRUCTURE_Parent_SMILES>
OC1=C(C=CC=C1)C2=CC=CC=C2

>  <STRUCTURE_InChI>
InChI=1/C12H10O/c13-12-9-5-4-8-11(12)10-6-2-1-3-7-10/h1-9,13H

>  <STRUCTURE_InChIKey>
LLEMOWNGBBNAJR-UHFFFAOYAF

>  <StudyType>
Carcinogenicity

>  <Endpoint>
TD50; Tumor Target Sites

>  <Species>
rat; mouse

>  <ActivityOutcome_CPDBAS_Mutagenicity>
active

>  <TD50_Rat_mg>
232

>  <TD50_Rat_mmol>
1.36

>  <ActivityScore_CPDBAS_Rat>
24

>  <TargetSites_Rat_Male>
urinary bladder

>  <ActivityOutcome_CPDBAS_Rat>
active

>  <ActivityScore_CPDBAS_Mouse>
0

>  <TD50_Mouse_Note>
no positive results

>  <TargetSites_Mouse_Male>
no positive results

>  <TargetSites_Mouse_Female>
no positive results

>  <ActivityOutcome_CPDBAS_Mouse>
inactive

>  <ActivityOutcome_CPDBAS_SingleCellCall>
active

>  <ChemicalPage_URL>
http://potency.berkeley.edu/chempages/o-PHENYLPHENOL.html

$$$$



 13 14  0  0  0  0  0  0  0  0999 V2000
    0.0000   -1.1562    0.0000 O   0  0  0  0  0  0  0  0  0  0  0  0
    1.3316   -1.1562    0.0000 C   0  0  0  0  0  0  0  0  0  0  0  0
    1.9935    0.0000    0.0000 C   0  0  0  0  0  0  0  0  0  0  0  0
    3.3251    0.0000    0.0000 C   0  0  0  0  0  0  0  0  0  0  0  0
    3.9869   -1.1562    0.0000 C   0  0  0  0  0  0  0  0  0  0  0  0
    3.3251   -2.3044    0.0000 C   0  0  0  0  0  0  0  0  0  0  0  0
    1.9935   -2.3044    0.0000 C   0  0  0  0  0  0  0  0  0  0  0  0
    5.3186   -1.1562    0.0000 C   0  0  0  0  0  0  0  0  0  0  0  0
    5.9804    0.0000    0.0000 C   0  0  0  0  0  0  0  0  0  0  0  0
    7.3120    0.0000    0.0000 C   0  0  0  0  0  0  0  0  0  0  0  0
    7.9739   -1.1562    0.0000 C   0  0  0  0  0  0  0  0  0  0  0  0
    7.3120   -2.3044    0.0000 C   0  0  0  0  0  0  0  0  0  0  0  0
    5.9804   -2.3044    0.0000 C   0  0  0  0  0  0  0  0  0  0  0  0
  1  2  1  0  0  0  0
  2  3  2  0  0  0  0
  2  7  1  0  0  0  0
  3  4  1  0  0  0  0
  4  5  2  0  0  0  0
  5  6  1  0  0  0  0
  5  8  1  0  0  0  0
  6  7  2  0  0  0  0
  8  9  2  0  0  0  0
  8 13  1  0  0  0  0
  9 10  1  0  0  0  0
 10 11  2  0  0  0  0
 11 12  1  0  0  0  0
 12 13  2  0  0  0  0
M  END
>  <DSSTox_RID>
21152

>  <DSSTox_CID>
1152

>  <DSSTox_Generic_SID>
21152

>  <DSSTox_FileID>
1204_CPDBAS_v5d

>  <STRUCTURE_Formula>
C12H10O

>  <STRUCTURE_MolecularWeight>
170.2072

>  <STRUCTURE_ChemicalType>
defined organic

>  <STRUCTURE_TestedForm_DefinedOrganic>
parent

>  <STRUCTURE_Shown>
tested chemical

>  <TestSubstance_ChemicalName>
p-Phenylphenol

>  <TestSubstance_CASRN>
92-69-3

>  <TestSubstance_Description>
single chemical compound

>  <STRUCTURE_ChemicalName_IUPAC>
biphenyl-4-ol

>  <STRUCTURE_SMILES>
OC1=CC=C(C=C1)C2=CC=CC=C2

>  <STRUCTURE_Parent_SMILES>
OC1=CC=C(C=C1)C2=CC=CC=C2

>  <STRUCTURE_InChI>
InChI=1/C12H10O/c13-12-8-6-11(7-9-12)10-4-2-1-3-5-10/h1-9,13H

>  <STRUCTURE_InChIKey>
YXVFYQXJAXKLAK-UHFFFAOYAY

>  <StudyType>
Carcinogenicity

>  <Endpoint>
TD50; Tumor Target Sites

>  <Species>
mouse

>  <ActivityScore_CPDBAS_Mouse>
0

>  <TD50_Mouse_Note>
no positive results

>  <TargetSites_Mouse_Male>
no positive results

>  <TargetSites_Mouse_Female>
no positive results

>  <ActivityOutcome_CPDBAS_Mouse>
inactive

>  <ActivityOutcome_CPDBAS_SingleCellCall>
inactive

>  <ActivityOutcome_CPDBAS_MultiCellCall>
inactive

>  <ActivityOutcome_CPDBAS_MultiCellCall_Details>
multisex inactive

>  <ChemicalPage_URL>
http://potency.berkeley.edu/chempages/p-PHENYLPHENOL.html

$$$$



 12 12  0  0  0  0  0  0  0  0999 V2000
    8.0579   -0.6815    0.0000 C   0  0  0  0  0  0  0  0  0  0  0  0
    6.9068   -1.3537    0.0000 N   0  0  0  0  0  0  0  0  0  0  0  0
    9.2090    0.0000    0.0000 S   0  0  0  0  0  0  0  0  0  0  0  0
    5.7464   -0.6907    0.0000 C   0  0  0  0  0  0  0  0  0  0  0  0
    4.6045   -1.3629    0.0000 C   0  0  0  0  0  0  0  0  0  0  0  0
    3.4626   -0.7091    0.0000 C   0  0  0  0  0  0  0  0  0  0  0  0
    1.1603   -3.3797    0.0000 C   0  0  0  0  0  0  0  0  0  0  0  0
    0.0092   -2.7351    0.0000 C   0  0  0  0  0  0  0  0  0  0  0  0
    0.0000   -1.3998    0.0000 C   0  0  0  0  0  0  0  0  0  0  0  0
    1.1511   -0.7275    0.0000 C   0  0  0  0  0  0  0  0  0  0  0  0
    2.3115   -1.3906    0.0000 C   0  0  0  0  0  0  0  0  0  0  0  0
    2.3115   -2.7075    0.0000 C   0  0  0  0  0  0  0  0  0  0  0  0
  1  2  2  0  0  0  0
  1  3  2  0  0  0  0
  2  4  1  0  0  0  0
  4  5  1  0  0  0  0
  5  6  1  0  0  0  0
  6 11  1  0  0  0  0
  7 12  2  0  0  0  0
  7  8  1  0  0  0  0
  8  9  2  0  0  0  0
  9 10  1  0  0  0  0
 10 11  2  0  0  0  0
 11 12  1  0  0  0  0
M  END
>  <DSSTox_RID>
40818

>  <DSSTox_CID>
20241

>  <DSSTox_Generic_SID>
40241

>  <DSSTox_FileID>
1206_CPDBAS_v5d

>  <STRUCTURE_Formula>
C10H11NS

>  <STRUCTURE_MolecularWeight>
177.266

>  <STRUCTURE_ChemicalType>
defined organic

>  <STRUCTURE_TestedForm_DefinedOrganic>
parent

>  <STRUCTURE_Shown>
tested chemical

>  <TestSubstance_ChemicalName>
3-Phenylpropyl isothiocynate

>  <TestSubstance_CASRN>
2627-27-2

>  <TestSubstance_Description>
single chemical compound

>  <STRUCTURE_ChemicalName_IUPAC>
(3-isothiocyanatopropyl)benzene

>  <STRUCTURE_SMILES>
S=C=NCCCC1=CC=CC=C1

>  <STRUCTURE_Parent_SMILES>
S=C=NCCCC1=CC=CC=C1

>  <STRUCTURE_InChI>
InChI=1/C10H11NS/c12-9-11-8-4-7-10-5-2-1-3-6-10/h1-3,5-6H,4,7-8H2

>  <STRUCTURE_InChIKey>
GRUOGLPIAPZLHJ-UHFFFAOYAD

>  <StudyType>
Carcinogenicity

>  <Endpoint>
TD50; Tumor Target Sites

>  <Species>
rat

>  <ActivityScore_CPDBAS_Rat>
0

>  <TD50_Rat_Note>
no positive results

>  <TargetSites_Rat_Male>
no positive results

>  <ActivityOutcome_CPDBAS_Rat>
inactive

>  <ActivityOutcome_CPDBAS_SingleCellCall>
inactive

>  <Note_CPDBAS>
Rat added v5a; chemical added v5a

>  <ChemicalPage_URL>
http://potency.berkeley.edu/chempages/3-PHENYLPROPYL%20ISOTHIOCYNATE.html

$$$$



 29 32  0  0  1  0  0  0  0  0999 V2000
    7.0990   -2.0399    0.0000 C   0  0  2  0  0  0  0  0  0  0  0  0
    7.0990   -3.3908    0.0000 C   0  0  1  0  0  0  0  0  0  0  0  0
    8.1507   -2.7743    0.0000 C   0  0  0  0  0  0  0  0  0  0  0  0
    4.7417   -3.3908    0.0000 C   0  0  2  0  0  0  0  0  0  0  0  0
    3.5087   -3.8714    0.0000 C   0  0  1  0  0  0  0  0  0  0  0  0
    3.1007   -5.1588    0.0000 C   0  0  1  0  0  0  0  0  0  0  0  0
    5.9204   -4.0708    0.0000 C   0  0  1  0  0  0  0  0  0  0  0  0
    4.7417   -2.0399    0.0000 C   0  0  1  0  0  0  0  0  0  0  0  0
    5.9204   -1.3690    0.0000 C   0  0  1  0  0  0  0  0  0  0  0  0
    2.3935   -3.1007    0.0000 C   0  0  0  0  0  0  0  0  0  0  0  0
    1.7317   -5.1679    0.0000 C   0  0  0  0  0  0  0  0  0  0  0  0
    1.3056   -3.9167    0.0000 C   0  0  0  0  0  0  0  0  0  0  0  0
    6.1108   -5.4127    0.0000 C   0  0  0  0  0  0  0  0  0  0  0  0
    5.1679   -6.3918    0.0000 C   0  0  0  0  0  0  0  0  0  0  0  0
    3.8351   -6.2649    0.0000 C   0  0  0  0  0  0  0  0  0  0  0  0
    8.2777   -1.3509    0.0000 O   0  0  0  0  0  0  0  0  0  0  0  0
    0.9338   -6.2649    0.0000 O   0  0  0  0  0  0  0  0  0  0  0  0
    3.5903   -2.7109    0.0000 O   0  0  0  0  0  0  0  0  0  0  0  0
    2.6746   -6.4553    0.0000 O   0  0  0  0  0  0  0  0  0  0  0  0
    5.9204    0.0000    0.0000 O   0  0  0  0  0  0  0  0  0  0  0  0
    9.0664   -2.1397    0.0000 C   0  0  0  0  0  0  0  0  0  0  0  0
    9.0392   -3.4815    0.0000 C   0  0  0  0  0  0  0  0  0  0  0  0
    3.5722   -1.3509    0.0000 C   0  0  0  0  0  0  0  0  0  0  0  0
    0.0000   -3.5722    0.0000 C   0  0  0  0  0  0  0  0  0  0  0  0
    5.6303   -7.6883    0.0000 C   0  0  0  0  0  0  0  0  0  0  0  0
    6.9449   -7.9331    0.0000 O   0  0  0  0  0  0  0  0  0  0  0  0
    8.2777   -4.0890    0.0000 H   0  0  0  0  0  0  0  0  0  0  0  0
    7.0990   -4.7417    0.0000 H   0  0  0  0  0  0  0  0  0  0  0  0
    4.5332   -4.6239    0.0000 H   0  0  0  0  0  0  0  0  0  0  0  0
  1  2  1  0  0  0  0
  1  3  1  0  0  0  0
  1  9  1  0  0  0  0
  1 16  1  6  0  0  0
  2  7  1  0  0  0  0
  2 27  1  6  0  0  0
  2  3  1  0  0  0  0
  3 21  1  0  0  0  0
  3 22  1  0  0  0  0
  4  8  1  0  0  0  0
  4  5  1  0  0  0  0
  4 18  1  6  0  0  0
  4  7  1  0  0  0  0
  5  6  1  0  0  0  0
  5 10  1  0  0  0  0
  5 29  1  6  0  0  0
  6 11  1  0  0  0  0
  6 19  1  1  0  0  0
  6 15  1  0  0  0  0
  7 13  1  0  0  0  0
  7 28  1  1  0  0  0
  8  9  1  0  0  0  0
  8 23  1  6  0  0  0
  9 20  1  1  0  0  0
 10 12  2  0  0  0  0
 11 17  2  0  0  0  0
 11 12  1  0  0  0  0
 12 24  1  0  0  0  0
 13 14  2  0  0  0  0
 14 15  1  0  0  0  0
 14 25  1  0  0  0  0
 25 26  1  0  0  0  0
M  END
>  <DSSTox_RID>
21155

>  <DSSTox_CID>
1155

>  <DSSTox_Generic_SID>
21155

>  <DSSTox_FileID>
1208_CPDBAS_v5d

>  <STRUCTURE_Formula>
C20H28O6

>  <STRUCTURE_MolecularWeight>
364.4376

>  <STRUCTURE_ChemicalType>
defined organic

>  <STRUCTURE_TestedForm_DefinedOrganic>
parent

>  <STRUCTURE_Shown>
tested chemical

>  <TestSubstance_ChemicalName>
Phorbol

>  <TestSubstance_CASRN>
17673-25-5

>  <TestSubstance_Description>
single chemical compound

>  <ChemicalNote>
stereochem

>  <STRUCTURE_ChemicalName_IUPAC>
(1aR,1bS,4aR,7aS,7bS,8R,9R,9aS)-4a,7b,9,9a-tetrahydroxy-3-(hydroxymethyl)-1,1,6,8-tetramethyl-1,1a,1b,4,4a,7a,7b,8,9,9a-decahydro-5H-cyclopropa[3,4]benzo[1,2-e]azulen-5-one

>  <STRUCTURE_SMILES>
O[C@]1(C(C)2C)[C@]2([H])[C@@](C=C(CO)C4)([H])[C@]([C@@](C=C3C)([H])[C@@]4(O)C3=O)(O)[C@H](C)[C@H]1O

>  <STRUCTURE_Parent_SMILES>
O[C@]1(C(C)2C)[C@]2([H])[C@@](C=C(CO)C4)([H])[C@]([C@@](C=C3C)([H])[C@@]4(O)C3=O)(O)[C@H](C)[C@H]1O

>  <STRUCTURE_InChI>
InChI=1/C20H28O6/c1-9-5-13-18(24,15(9)22)7-11(8-21)6-12-14-17(3,4)20(14,26)16(23)10(2)19(12,13)25/h5-6,10,12-14,16,21,23-26H,7-8H2,1-4H3/t10-,12+,13-,14-,16-,18-,19-,20-/m1/s1

>  <STRUCTURE_InChIKey>
QGVLYPPODPLXMB-UBTYZVCOBR

>  <StudyType>
Carcinogenicity

>  <Endpoint>
TD50; Tumor Target Sites

>  <Species>
mouse

>  <TD50_Mouse_mg>
2.21

>  <TD50_Mouse_mmol>
0.00606

>  <ActivityScore_CPDBAS_Mouse>
53

>  <TD50_Mouse_Note>
positive test results only by intraperitoneal or intravenous injection

>  <TargetSites_Mouse_Male>
no positive results

>  <TargetSites_Mouse_Female>
hematopoietic system

>  <ActivityOutcome_CPDBAS_Mouse>
active

>  <ActivityOutcome_CPDBAS_SingleCellCall>
active

>  <ChemicalPage_URL>
http://potency.berkeley.edu/chempages/PHORBOL.html

$$$$



 12 12  0  0  0  0  0  0  0  0999 V2000
    0.0000   -2.3041    0.0000 N   0  0  0  0  0  0  0  0  0  0  0  0
    0.6656   -3.4585    0.0000 C   0  0  0  0  0  0  0  0  0  0  0  0
    0.0000   -4.6082    0.0000 O   0  0  0  0  0  0  0  0  0  0  0  0
    1.9969   -3.4585    0.0000 C   0  0  0  0  0  0  0  0  0  0  0  0
    2.6579   -2.3041    0.0000 C   0  0  0  0  0  0  0  0  0  0  0  0
    3.9891   -2.3041    0.0000 C   0  0  0  0  0  0  0  0  0  0  0  0
    4.6548   -3.4585    0.0000 C   0  0  0  0  0  0  0  0  0  0  0  0
    3.9891   -4.6082    0.0000 C   0  0  0  0  0  0  0  0  0  0  0  0
    2.6579   -4.6082    0.0000 C   0  0  0  0  0  0  0  0  0  0  0  0
    1.9969   -1.1544    0.0000 C   0  0  0  0  0  0  0  0  0  0  0  0
    0.6656   -1.1544    0.0000 O   0  0  0  0  0  0  0  0  0  0  0  0
    2.6579    0.0000    0.0000 N   0  0  0  0  0  0  0  0  0  0  0  0
  1  2  1  0  0  0  0
  2  3  2  0  0  0  0
  2  4  1  0  0  0  0
  4  5  2  0  0  0  0
  4  9  1  0  0  0  0
  5  6  1  0  0  0  0
  5 10  1  0  0  0  0
  6  7  2  0  0  0  0
  7  8  1  0  0  0  0
  8  9  2  0  0  0  0
 10 11  2  0  0  0  0
 10 12  1  0  0  0  0
M  END
>  <DSSTox_RID>
21158

>  <DSSTox_CID>
1158

>  <DSSTox_Generic_SID>
21158

>  <DSSTox_FileID>
1211_CPDBAS_v5d

>  <STRUCTURE_Formula>
C8H8N2O2

>  <STRUCTURE_MolecularWeight>
164.1613

>  <STRUCTURE_ChemicalType>
defined organic

>  <STRUCTURE_TestedForm_DefinedOrganic>
parent

>  <STRUCTURE_Shown>
tested chemical

>  <TestSubstance_ChemicalName>
Phthalamide

>  <TestSubstance_CASRN>
88-96-0

>  <TestSubstance_Description>
single chemical compound

>  <STRUCTURE_ChemicalName_IUPAC>
phthalamide

>  <STRUCTURE_SMILES>
NC(=O)C1=C(C=CC=C1)C(=O)N

>  <STRUCTURE_Parent_SMILES>
NC(=O)C1=C(C=CC=C1)C(=O)N

>  <STRUCTURE_InChI>
InChI=1/C8H8N2O2/c9-7(11)5-3-1-2-4-6(5)8(10)12/h1-4H,(H2,9,11)(H2,10,12)/f/h9-10H2

>  <STRUCTURE_InChIKey>
NAYYNDKKHOIIOD-IUIWLCSJCC

>  <StudyType>
Carcinogenicity

>  <Endpoint>
TD50; Tumor Target Sites

>  <Species>
rat; mouse

>  <ActivityOutcome_CPDBAS_Mutagenicity>
inactive

>  <ActivityScore_CPDBAS_Rat>
0

>  <TD50_Rat_Note>
no positive results

>  <TargetSites_Rat_Male>
no positive results

>  <TargetSites_Rat_Female>
no positive results

>  <ActivityOutcome_CPDBAS_Rat>
inactive

>  <ActivityScore_CPDBAS_Mouse>
0

>  <TD50_Mouse_Note>
no positive results

>  <TargetSites_Mouse_Male>
no positive results

>  <TargetSites_Mouse_Female>
no positive results

>  <ActivityOutcome_CPDBAS_Mouse>
inactive

>  <ActivityOutcome_CPDBAS_SingleCellCall>
inactive

>  <ActivityOutcome_CPDBAS_MultiCellCall>
inactive

>  <ActivityOutcome_CPDBAS_MultiCellCall_Details>
multisex inactive; multispecies inactive

>  <NTP_TechnicalReport>
TR 161

>  <ChemicalPage_URL>
http://potency.berkeley.edu/chempages/PHTHALAMIDE.html

$$$$



 11 12  0  0  0  0  0  0  0  0999 V2000
    4.5940   -2.6089    0.0000 O   0  0  0  0  0  0  0  0  0  0  0  0
    3.2920   -2.8861    0.0000 C   0  0  0  0  0  0  0  0  0  0  0  0
    2.3020   -1.9950    0.0000 C   0  0  0  0  0  0  0  0  0  0  0  0
    1.1535   -2.6584    0.0000 C   0  0  0  0  0  0  0  0  0  0  0  0
    0.0000   -1.9950    0.0000 C   0  0  0  0  0  0  0  0  0  0  0  0
    0.0000   -0.6634    0.0000 C   0  0  0  0  0  0  0  0  0  0  0  0
    1.1535    0.0000    0.0000 C   0  0  0  0  0  0  0  0  0  0  0  0
    2.3020   -0.6634    0.0000 C   0  0  0  0  0  0  0  0  0  0  0  0
    1.4307   -3.9603    0.0000 C   0  0  0  0  0  0  0  0  0  0  0  0
    0.5396   -4.9504    0.0000 O   0  0  0  0  0  0  0  0  0  0  0  0
    2.7524   -4.0990    0.0000 O   0  0  0  0  0  0  0  0  0  0  0  0
  1  2  2  0  0  0  0
  2  3  1  0  0  0  0
  2 11  1  0  0  0  0
  3  4  2  0  0  0  0
  3  8  1  0  0  0  0
  4  5  1  0  0  0  0
  4  9  1  0  0  0  0
  5  6  2  0  0  0  0
  6  7  1  0  0  0  0
  7  8  2  0  0  0  0
  9 10  2  0  0  0  0
  9 11  1  0  0  0  0
M  END
>  <DSSTox_RID>
21159

>  <DSSTox_CID>
1159

>  <DSSTox_Generic_SID>
21159

>  <DSSTox_FileID>
1212_CPDBAS_v5d

>  <STRUCTURE_Formula>
C8H4O3

>  <STRUCTURE_MolecularWeight>
148.1156

>  <STRUCTURE_ChemicalType>
defined organic

>  <STRUCTURE_TestedForm_DefinedOrganic>
parent

>  <STRUCTURE_Shown>
tested chemical

>  <TestSubstance_ChemicalName>
Phthalic anhydride

>  <TestSubstance_CASRN>
85-44-9

>  <TestSubstance_Description>
single chemical compound

>  <STRUCTURE_ChemicalName_IUPAC>
2-benzofuran-1,3-dione

>  <STRUCTURE_SMILES>
O=C1C2=C(C=CC=C2)C(=O)O1

>  <STRUCTURE_Parent_SMILES>
O=C1C2=C(C=CC=C2)C(=O)O1

>  <STRUCTURE_InChI>
InChI=1/C8H4O3/c9-7-5-3-1-2-4-6(5)8(10)11-7/h1-4H

>  <STRUCTURE_InChIKey>
LGRFSURHDFAFJT-UHFFFAOYAZ

>  <StudyType>
Carcinogenicity

>  <Endpoint>
TD50; Tumor Target Sites

>  <Species>
rat; mouse

>  <ActivityOutcome_CPDBAS_Mutagenicity>
inactive

>  <ActivityScore_CPDBAS_Rat>
0

>  <TD50_Rat_Note>
no positive results

>  <TargetSites_Rat_Male>
no positive results

>  <TargetSites_Rat_Female>
no positive results

>  <ActivityOutcome_CPDBAS_Rat>
inactive

>  <ActivityScore_CPDBAS_Mouse>
0

>  <TD50_Mouse_Note>
no positive results

>  <TargetSites_Mouse_Male>
no positive results

>  <TargetSites_Mouse_Female>
no positive results

>  <ActivityOutcome_CPDBAS_Mouse>
inactive

>  <ActivityOutcome_CPDBAS_SingleCellCall>
inactive

>  <ActivityOutcome_CPDBAS_MultiCellCall>
inactive

>  <ActivityOutcome_CPDBAS_MultiCellCall_Details>
multisex inactive; multispecies inactive

>  <NTP_TechnicalReport>
TR 159

>  <ChemicalPage_URL>
http://potency.berkeley.edu/chempages/PHTHALIC%20ANHYDRIDE.html

$$$$



 13 13  0  0  0  0  0  0  0  0999 V2000
    3.4803   -1.9978    0.0000 C   0  0  0  0  0  0  0  0  0  0  0  0
    2.3395   -1.3493    0.0000 N   0  0  0  0  0  0  0  0  0  0  0  0
    3.4803   -3.3297    0.0000 C   0  0  0  0  0  0  0  0  0  0  0  0
    1.1813   -3.3297    0.0000 C   0  0  0  0  0  0  0  0  0  0  0  0
    2.3395   -3.9783    0.0000 C   0  0  0  0  0  0  0  0  0  0  0  0
    1.1813   -1.9978    0.0000 C   0  0  0  0  0  0  0  0  0  0  0  0
    4.6327   -1.3377    0.0000 C   0  0  0  0  0  0  0  0  0  0  0  0
    4.6327    0.0000    0.0000 O   0  0  0  0  0  0  0  0  0  0  0  0
    2.3395   -5.3102    0.0000 N   0  0  0  0  0  0  0  0  0  0  0  0
    0.0116   -3.9899    0.0000 Cl  0  0  0  0  0  0  0  0  0  0  0  0
    4.6327   -4.0015    0.0000 Cl  0  0  0  0  0  0  0  0  0  0  0  0
    0.0000   -1.3493    0.0000 Cl  0  0  0  0  0  0  0  0  0  0  0  0
    5.7908   -1.9805    0.0000 O   0  0  0  0  0  0  0  0  0  0  0  0
  1  2  1  0  0  0  0
  1  3  2  0  0  0  0
  1  7  1  0  0  0  0
  2  6  2  0  0  0  0
  3  5  1  0  0  0  0
  3 11  1  0  0  0  0
  4  5  2  0  0  0  0
  4 10  1  0  0  0  0
  4  6  1  0  0  0  0
  5  9  1  0  0  0  0
  6 12  1  0  0  0  0
  7  8  2  0  0  0  0
  7 13  1  0  0  0  0
M  END
>  <DSSTox_RID>
21160

>  <DSSTox_CID>
1160

>  <DSSTox_Generic_SID>
24265

>  <DSSTox_FileID>
1213_CPDBAS_v5d

>  <STRUCTURE_Formula>
C6H3Cl3N2O2

>  <STRUCTURE_MolecularWeight>
241.4592

>  <STRUCTURE_ChemicalType>
defined organic

>  <STRUCTURE_TestedForm_DefinedOrganic>
parent

>  <STRUCTURE_Shown>
tested chemical

>  <TestSubstance_ChemicalName>
Picloram, technical grade

>  <TestSubstance_CASRN>
1918-02-1

>  <TestSubstance_Description>
single chemical compound

>  <STRUCTURE_ChemicalName_IUPAC>
4-amino-3,5,6-trichloropyridine-2-carboxylic acid

>  <STRUCTURE_SMILES>
ClC1=C(Cl)N=C(C(O)=O)C(Cl)=C1N

>  <STRUCTURE_Parent_SMILES>
ClC1=C(Cl)N=C(C(O)=O)C(Cl)=C1N

>  <STRUCTURE_InChI>
InChI=1/C6H3Cl3N2O2/c7-1-3(10)2(8)5(9)11-4(1)6(12)13/h(H2,10,11)(H,12,13)/f/h12H,10H2

>  <STRUCTURE_InChIKey>
NQQVFXUMIDALNH-FSHPWJEWCF

>  <StudyType>
Carcinogenicity

>  <Endpoint>
TD50; Tumor Target Sites

>  <Species>
rat; mouse

>  <ActivityOutcome_CPDBAS_Mutagenicity>
inactive

>  <ActivityScore_CPDBAS_Rat>
0

>  <TD50_Rat_Note>
no positive results

>  <TargetSites_Rat_Male>
no positive results

>  <TargetSites_Rat_Female>
no positive results

>  <ActivityOutcome_CPDBAS_Rat>
inactive

>  <ActivityScore_CPDBAS_Mouse>
0

>  <TD50_Mouse_Note>
no positive results

>  <TargetSites_Mouse_Male>
no positive results

>  <TargetSites_Mouse_Female>
no positive results

>  <ActivityOutcome_CPDBAS_Mouse>
inactive

>  <ActivityOutcome_CPDBAS_SingleCellCall>
inactive

>  <ActivityOutcome_CPDBAS_MultiCellCall>
inactive

>  <ActivityOutcome_CPDBAS_MultiCellCall_Details>
multisex inactive; multispecies inactive

>  <NTP_TechnicalReport>
TR 23

>  <ChemicalPage_URL>
http://potency.berkeley.edu/chempages/PICLORAM,%20TECHNICAL%20GRADE.html

$$$$



 15 16  0  0  1  0  0  0  0  0999 V2000
    5.6673   -2.2872    0.0000 C   0  0  0  0  0  0  0  0  0  0  0  0
    5.9405   -0.9836    0.0000 N   0  0  0  0  0  0  0  0  0  0  0  0
    7.2675   -0.8431    0.0000 C   0  0  0  0  0  0  0  0  0  0  0  0
    7.8061   -2.0608    0.0000 N   0  0  0  0  0  0  0  0  0  0  0  0
    6.8148   -2.9507    0.0000 C   0  0  0  0  0  0  0  0  0  0  0  0
    5.0506    0.0000    0.0000 C   0  0  0  0  0  0  0  0  0  0  0  0
    4.4495   -2.8258    0.0000 C   0  0  0  0  0  0  0  0  0  0  0  0
    3.3723   -2.0452    0.0000 C   0  0  2  0  0  0  0  0  0  0  0  0
    2.1077   -2.4589    0.0000 C   0  0  1  0  0  0  0  0  0  0  0  0
    1.3270   -1.3817    0.0000 C   0  0  0  0  0  0  0  0  0  0  0  0
    0.0000   -1.3817    0.0000 O   0  0  0  0  0  0  0  0  0  0  0  0
    2.1077   -0.3044    0.0000 O   0  0  0  0  0  0  0  0  0  0  0  0
    3.3723   -0.7182    0.0000 C   0  0  0  0  0  0  0  0  0  0  0  0
    1.7017   -3.7235    0.0000 C   0  0  0  0  0  0  0  0  0  0  0  0
    0.3981   -3.9967    0.0000 C   0  0  0  0  0  0  0  0  0  0  0  0
  1  2  1  0  0  0  0
  1  5  2  0  0  0  0
  1  7  1  0  0  0  0
  2  3  1  0  0  0  0
  2  6  1  0  0  0  0
  3  4  2  0  0  0  0
  4  5  1  0  0  0  0
  8  7  1  6  0  0  0
  8  9  1  0  0  0  0
  8 13  1  0  0  0  0
  9 10  1  0  0  0  0
  9 14  1  6  0  0  0
 10 11  2  0  0  0  0
 10 12  1  0  0  0  0
 12 13  1  0  0  0  0
 14 15  1  0  0  0  0
M  END
>  <DSSTox_RID>
21162

>  <DSSTox_CID>
1162

>  <DSSTox_Generic_SID>
21162

>  <DSSTox_FileID>
1215_CPDBAS_v5d

>  <STRUCTURE_Formula>
C11H16N2O2

>  <STRUCTURE_MolecularWeight>
208.2596

>  <STRUCTURE_ChemicalType>
defined organic

>  <STRUCTURE_TestedForm_DefinedOrganic>
parent

>  <STRUCTURE_Shown>
tested chemical

>  <TestSubstance_ChemicalName>
Pilocarpine

>  <TestSubstance_CASRN>
92-13-7

>  <TestSubstance_Description>
single chemical compound

>  <ChemicalNote>
stereochem

>  <STRUCTURE_ChemicalName_IUPAC>
(3S,4R)-3-ethyl-4-[(1-methyl-1H-imidazol-5-yl)methyl]dihydrofuran-2(3H)-one

>  <STRUCTURE_SMILES>
c1(n(cnc1)C)C[C@@H]2[C@@H](C(=O)OC2)CC

>  <STRUCTURE_Parent_SMILES>
c1(n(cnc1)C)C[C@@H]2[C@@H](C(=O)OC2)CC

>  <STRUCTURE_InChI>
InChI=1/C11H16N2O2/c1-3-10-8(6-15-11(10)14)4-9-5-12-7-13(9)2/h5,7-8,10H,3-4,6H2,1-2H3/t8-,10-/m0/s1

>  <STRUCTURE_InChIKey>
QCHFTSOMWOSFHM-WPRPVWTQBQ

>  <StudyType>
Carcinogenicity

>  <Endpoint>
TD50; Tumor Target Sites

>  <Species>
rat

>  <ActivityScore_CPDBAS_Rat>
0

>  <TD50_Rat_Note>
no positive results

>  <TargetSites_Rat_Male>
no positive results

>  <TargetSites_Rat_Female>
no positive results

>  <ActivityOutcome_CPDBAS_Rat>
inactive

>  <ActivityOutcome_CPDBAS_SingleCellCall>
inactive

>  <ActivityOutcome_CPDBAS_MultiCellCall>
inactive

>  <ActivityOutcome_CPDBAS_MultiCellCall_Details>
multisex inactive

>  <ChemicalPage_URL>
http://potency.berkeley.edu/chempages/PILOCARPINE.html

$$$$



 50 53  0  0  1  0  0  0  0  0999 V2000
    2.2978   -5.3213    0.0000 C   0  0  0  0  0  0  0  0  0  0  0  0
    2.2978   -7.9819    0.0000 O   0  0  0  0  0  0  0  0  0  0  0  0
    1.1576   -5.9778    0.0000 C   0  0  0  0  0  0  0  0  0  0  0  0
    1.1576   -7.3254    0.0000 C   0  0  0  0  0  0  0  0  0  0  0  0
    4.6129   -3.9910    0.0000 C   0  0  0  0  0  0  0  0  0  0  0  0
    3.4554   -3.3172    0.0000 C   0  0  2  0  0  0  0  0  0  0  0  0
    2.2978   -3.9910    0.0000 C   0  0  2  0  0  0  0  0  0  0  0  0
    6.9108   -3.9910    0.0000 C   0  0  0  0  0  0  0  0  0  0  0  0
    5.7532   -3.3172    0.0000 C   0  0  1  0  0  0  0  0  0  0  0  0
    8.0510   -3.3344    0.0000 C   0  0  1  0  0  0  0  0  0  0  0  0
    9.2259   -3.9910    0.0000 O   0  0  0  0  0  0  0  0  0  0  0  0
   10.3661   -3.3344    0.0000 C   0  0  1  0  0  0  0  0  0  0  0  0
   11.5237   -3.9910    0.0000 C   0  0  0  0  0  0  0  0  0  0  0  0
   10.3661   -5.9951    0.0000 C   0  0  0  0  0  0  0  0  0  0  0  0
   11.5237   -5.3213    0.0000 C   0  0  2  0  0  0  0  0  0  0  0  0
   10.3661   -7.3081    0.0000 C   0  0  0  0  0  0  0  0  0  0  0  0
    9.2259   -7.9819    0.0000 C   0  0  0  0  0  0  0  0  0  0  0  0
    6.9108   -9.3123    0.0000 C   0  0  0  0  0  0  0  0  0  0  0  0
    9.2259   -9.3123    0.0000 C   0  0  0  0  0  0  0  0  0  0  0  0
    8.0510   -9.9688    0.0000 C   0  0  0  0  0  0  0  0  0  0  0  0
    5.7705   -9.9688    0.0000 C   0  0  0  0  0  0  0  0  0  0  0  0
    4.6129   -9.3123    0.0000 C   0  0  0  0  0  0  0  0  0  0  0  0
    3.4727   -9.9688    0.0000 C   0  0  0  0  0  0  0  0  0  0  0  0
    2.2978   -9.3123    0.0000 C   0  0  1  0  0  0  0  0  0  0  0  0
    0.0000   -7.9819    0.0000 O   0  0  0  0  0  0  0  0  0  0  0  0
    1.1576   -9.9861    0.0000 C   0  0  0  0  0  0  0  0  0  0  0  0
   12.6640   -5.9951    0.0000 O   0  0  0  0  0  0  0  0  0  0  0  0
   10.3661   -2.0041    0.0000 C   0  0  1  0  0  0  0  0  0  0  0  0
    9.2259   -1.3303    0.0000 C   0  0  2  0  0  0  0  0  0  0  0  0
    8.0510   -2.0041    0.0000 C   0  0  0  0  0  0  0  0  0  0  0  0
   11.5237   -1.3303    0.0000 C   0  0  0  0  0  0  0  0  0  0  0  0
   12.6640   -2.0041    0.0000 O   0  0  0  0  0  0  0  0  0  0  0  0
   11.5237    0.0000    0.0000 O   0  0  0  0  0  0  0  0  0  0  0  0
    8.0510   -4.6648    0.0000 O   0  0  0  0  0  0  0  0  0  0  0  0
    9.2259    0.0000    0.0000 O   0  0  0  0  0  0  0  0  0  0  0  0
    5.7532   -1.9868    0.0000 O   0  0  0  0  0  0  0  0  0  0  0  0
    2.2978   -2.6606    0.0000 O   0  0  0  0  0  0  0  0  0  0  0  0
    3.4554   -1.9868    0.0000 H   0  0  0  0  0  0  0  0  0  0  0  0
    1.1576   -3.3172    0.0000 H   0  0  0  0  0  0  0  0  0  0  0  0
   10.3661   -4.6648    0.0000 H   0  0  0  0  0  0  0  0  0  0  0  0
   13.8215   -5.3213    0.0000 C   0  0  2  0  0  0  0  0  0  0  0  0
   14.9791   -5.9951    0.0000 O   0  0  0  0  0  0  0  0  0  0  0  0
   13.8215   -3.9910    0.0000 C   0  0  2  0  0  0  0  0  0  0  0  0
   16.1366   -5.3213    0.0000 C   0  0  1  0  0  0  0  0  0  0  0  0
   14.9791   -3.3344    0.0000 C   0  0  2  0  0  0  0  0  0  0  0  0
   16.1366   -3.9910    0.0000 C   0  0  2  0  0  0  0  0  0  0  0  0
   12.6640   -3.3344    0.0000 O   0  0  0  0  0  0  0  0  0  0  0  0
   14.9791   -2.0041    0.0000 N   0  0  0  0  0  0  0  0  0  0  0  0
   17.2769   -3.3344    0.0000 O   0  0  0  0  0  0  0  0  0  0  0  0
   17.2769   -5.9951    0.0000 C   0  0  0  0  0  0  0  0  0  0  0  0
  1  3  2  0  0  0  0
  1  7  1  0  0  0  0
  2  4  1  0  0  0  0
  2 24  1  0  0  0  0
  3  4  1  0  0  0  0
  4 25  2  0  0  0  0
  5  6  1  0  0  0  0
  5  9  1  0  0  0  0
  6 37  1  0  0  0  0
  6  7  1  0  0  0  0
  6 38  1  1  0  0  0
  7 37  1  0  0  0  0
  7 39  1  6  0  0  0
  8  9  1  0  0  0  0
  8 10  1  0  0  0  0
  9 36  1  6  0  0  0
 10 11  1  0  0  0  0
 10 30  1  0  0  0  0
 10 34  1  1  0  0  0
 11 12  1  0  0  0  0
 12 13  1  0  0  0  0
 12 28  1  0  0  0  0
 12 40  1  1  0  0  0
 13 15  1  0  0  0  0
 14 15  1  0  0  0  0
 14 16  2  0  0  0  0
 15 27  1  1  0  0  0
 16 17  1  0  0  0  0
 17 19  2  0  0  0  0
 18 20  2  0  0  0  0
 18 21  1  0  0  0  0
 19 20  1  0  0  0  0
 21 22  2  0  0  0  0
 22 23  1  0  0  0  0
 23 24  1  0  0  0  0
 24 26  1  1  0  0  0
 41 27  1  1  0  0  0
 28 29  1  0  0  0  0
 28 31  1  1  0  0  0
 29 30  1  0  0  0  0
 29 35  1  6  0  0  0
 31 32  1  0  0  0  0
 31 33  2  0  0  0  0
 41 42  1  0  0  0  0
 41 43  1  0  0  0  0
 42 44  1  0  0  0  0
 43 45  1  0  0  0  0
 43 47  1  1  0  0  0
 44 46  1  0  0  0  0
 44 50  1  1  0  0  0
 45 46  1  0  0  0  0
 45 48  1  1  0  0  0
 46 49  1  6  0  0  0
M  END
>  <DSSTox_RID>
21163

>  <DSSTox_CID>
1163

>  <DSSTox_Generic_SID>
21163

>  <DSSTox_FileID>
1216_CPDBAS_v5d

>  <STRUCTURE_Formula>
C33H47NO13

>  <STRUCTURE_MolecularWeight>
665.72518

>  <STRUCTURE_ChemicalType>
defined organic

>  <STRUCTURE_TestedForm_DefinedOrganic>
parent

>  <STRUCTURE_Shown>
tested chemical

>  <TestSubstance_ChemicalName>
Pimaricin

>  <TestSubstance_CASRN>
7681-93-8

>  <TestSubstance_Description>
single chemical compound

>  <ChemicalNote>
Natamycin, stereochem

>  <STRUCTURE_ChemicalName_IUPAC>
(1R,3S,5R,7R,8E,12R,14E,16E,18E,20E,22R,24S,25R,26S)-22-[(3-amino-3,6-dideoxy-beta-D-mannopyranosyl)oxy]-1,3,26-trihydroxy-12-methyl-10-oxo-6,11,28-trioxatricyclo[22.3.1.0~5,7~]octacosa-8,14,16,18,20-pentaene-25-carboxylic acid

>  <STRUCTURE_SMILES>
C\1=C/C(O[C@@H](C/C=C/C=C/C=C/C=C/[C@@H](C[C@@H]3O[C@](C[C@H](C[C@H]2O[C@H]/12)O)(C[C@@H]([C@H]3C(O)=O)O)O)O[C@@H]4O[C@@H]([C@H]([C@@H]([C@@H]4O)N)O)C)C)=O

>  <STRUCTURE_Parent_SMILES>
C\1=C/C(O[C@@H](C/C=C/C=C/C=C/C=C/[C@@H](C[C@@H]3O[C@](C[C@H](C[C@H]2O[C@H]/12)O)(C[C@@H]([C@H]3C(O)=O)O)O)O[C@@H]4O[C@@H]([C@H]([C@@H]([C@@H]4O)N)O)C)C)=O

>  <STRUCTURE_InChI>
InChI=1/C33H47NO13/c1-18-10-8-6-4-3-5-7-9-11-21(45-32-30(39)28(34)29(38)19(2)44-32)15-25-27(31(40)41)22(36)17-33(42,47-25)16-20(35)14-24-23(46-24)12-13-26(37)43-18/h3-9,11-13,18-25,27-30,32,35-36,38-39,42H,10,14-17,34H2,1-2H3,(H,40,41)/b4-3+,7-5+,8-6+,11-9+,13-12+/t18-,19-,20+,21+,22+,23-,24-,25+,27-,28+,29-,30+,32+,33-/m1/s1/f/h40H

>  <STRUCTURE_InChIKey>
NCXMLFZGDNKEPB-FRHPVQHODF

>  <StudyType>
Carcinogenicity

>  <Endpoint>
TD50; Tumor Target Sites

>  <Species>
rat

>  <ActivityScore_CPDBAS_Rat>
0

>  <TD50_Rat_Note>
no positive results

>  <TargetSites_Rat_Male>
no positive results

>  <TargetSites_Rat_Female>
no positive results

>  <ActivityOutcome_CPDBAS_Rat>
inactive

>  <ActivityOutcome_CPDBAS_SingleCellCall>
inactive

>  <ActivityOutcome_CPDBAS_MultiCellCall>
inactive

>  <ActivityOutcome_CPDBAS_MultiCellCall_Details>
multisex inactive

>  <ChemicalPage_URL>
http://potency.berkeley.edu/chempages/PIMARICIN.html

$$$$



  6  6  0  0  0  0  0  0  0  0999 V2000
    2.3036   -1.9950    0.0000 C   0  0  0  0  0  0  0  0  0  0  0  0
    1.1518   -2.6600    0.0000 C   0  0  0  0  0  0  0  0  0  0  0  0
    0.0000   -1.9950    0.0000 N   0  0  0  0  0  0  0  0  0  0  0  0
    0.0000   -0.6650    0.0000 C   0  0  0  0  0  0  0  0  0  0  0  0
    1.1518    0.0000    0.0000 C   0  0  0  0  0  0  0  0  0  0  0  0
    2.3036   -0.6650    0.0000 N   0  0  0  0  0  0  0  0  0  0  0  0
  1  2  1  0  0  0  0
  1  6  1  0  0  0  0
  2  3  1  0  0  0  0
  3  4  1  0  0  0  0
  4  5  1  0  0  0  0
  5  6  1  0  0  0  0
M  END
>  <DSSTox_RID>
21164

>  <DSSTox_CID>
1164

>  <DSSTox_Generic_SID>
21164

>  <DSSTox_FileID>
1217_CPDBAS_v5d

>  <STRUCTURE_Formula>
C4H10N2

>  <STRUCTURE_MolecularWeight>
86.1356

>  <STRUCTURE_ChemicalType>
defined organic

>  <STRUCTURE_TestedForm_DefinedOrganic>
parent

>  <STRUCTURE_Shown>
tested chemical

>  <TestSubstance_ChemicalName>
Piperazine

>  <TestSubstance_CASRN>
110-85-0

>  <TestSubstance_Description>
single chemical compound

>  <STRUCTURE_ChemicalName_IUPAC>
piperazine

>  <STRUCTURE_SMILES>
C1CNCCN1

>  <STRUCTURE_Parent_SMILES>
C1CNCCN1

>  <STRUCTURE_InChI>
InChI=1/C4H10N2/c1-2-6-4-3-5-1/h5-6H,1-4H2

>  <STRUCTURE_InChIKey>
GLUUGHFHXGJENI-UHFFFAOYAS

>  <StudyType>
Carcinogenicity

>  <Endpoint>
TD50; Tumor Target Sites

>  <Species>
rat

>  <ActivityOutcome_CPDBAS_Mutagenicity>
inactive

>  <ActivityScore_CPDBAS_Rat>
0

>  <TD50_Rat_Note>
no positive results

>  <TargetSites_Rat_Male>
no positive results

>  <TargetSites_Rat_Female>
no positive results

>  <ActivityOutcome_CPDBAS_Rat>
inactive

>  <ActivityOutcome_CPDBAS_SingleCellCall>
inactive

>  <ActivityOutcome_CPDBAS_MultiCellCall>
inactive

>  <ActivityOutcome_CPDBAS_MultiCellCall_Details>
multisex inactive

>  <ChemicalPage_URL>
http://potency.berkeley.edu/chempages/PIPERAZINE.html

$$$$



  6  6  0  0  0  0  0  0  0  0999 V2000
    2.3036   -1.9950    0.0000 C   0  0  0  0  0  0  0  0  0  0  0  0
    1.1518   -2.6600    0.0000 C   0  0  0  0  0  0  0  0  0  0  0  0
    0.0000   -1.9950    0.0000 C   0  0  0  0  0  0  0  0  0  0  0  0
    0.0000   -0.6650    0.0000 N   0  0  0  0  0  0  0  0  0  0  0  0
    1.1518    0.0000    0.0000 C   0  0  0  0  0  0  0  0  0  0  0  0
    2.3036   -0.6650    0.0000 C   0  0  0  0  0  0  0  0  0  0  0  0
  1  2  1  0  0  0  0
  1  6  1  0  0  0  0
  2  3  1  0  0  0  0
  3  4  1  0  0  0  0
  4  5  1  0  0  0  0
  5  6  1  0  0  0  0
M  END
>  <DSSTox_RID>
21165

>  <DSSTox_CID>
1165

>  <DSSTox_Generic_SID>
21165

>  <DSSTox_FileID>
1218_CPDBAS_v5d

>  <STRUCTURE_Formula>
C5H11N

>  <STRUCTURE_MolecularWeight>
85.1475

>  <STRUCTURE_ChemicalType>
defined organic

>  <STRUCTURE_TestedForm_DefinedOrganic>
parent

>  <STRUCTURE_Shown>
tested chemical

>  <TestSubstance_ChemicalName>
Piperidine

>  <TestSubstance_CASRN>
110-89-4

>  <TestSubstance_Description>
single chemical compound

>  <STRUCTURE_ChemicalName_IUPAC>
piperidine

>  <STRUCTURE_SMILES>
C1CCNCC1

>  <STRUCTURE_Parent_SMILES>
C1CCNCC1

>  <STRUCTURE_InChI>
InChI=1/C5H11N/c1-2-4-6-5-3-1/h6H,1-5H2

>  <STRUCTURE_InChIKey>
NQRYJNQNLNOLGT-UHFFFAOYAY

>  <StudyType>
Carcinogenicity

>  <Endpoint>
TD50; Tumor Target Sites

>  <Species>
rat

>  <ActivityScore_CPDBAS_Rat>
0

>  <TD50_Rat_Note>
no positive results

>  <TargetSites_Rat_Male>
no positive results

>  <TargetSites_Rat_Female>
no positive results

>  <ActivityOutcome_CPDBAS_Rat>
inactive

>  <ActivityOutcome_CPDBAS_SingleCellCall>
inactive

>  <ActivityOutcome_CPDBAS_MultiCellCall>
inactive

>  <ActivityOutcome_CPDBAS_MultiCellCall_Details>
multisex inactive

>  <ChemicalPage_URL>
http://potency.berkeley.edu/chempages/PIPERIDINE.html

$$$$



 24 25  0  0  0  0  0  0  0  0999 V2000
   16.1183    0.0000    0.0000 C   0  0  0  0  0  0  0  0  0  0  0  0
   16.1183   -1.3346    0.0000 C   0  0  0  0  0  0  0  0  0  0  0  0
   14.9718   -2.0020    0.0000 C   0  0  0  0  0  0  0  0  0  0  0  0
   14.9718   -3.3195    0.0000 C   0  0  0  0  0  0  0  0  0  0  0  0
   16.1183   -3.9868    0.0000 C   0  0  0  0  0  0  0  0  0  0  0  0
   16.1183   -5.3214    0.0000 C   0  0  0  0  0  0  0  0  0  0  0  0
   14.9718   -5.9887    0.0000 C   0  0  0  0  0  0  0  0  0  0  0  0
   13.8254   -5.3214    0.0000 C   0  0  0  0  0  0  0  0  0  0  0  0
   13.8254   -3.9868    0.0000 C   0  0  0  0  0  0  0  0  0  0  0  0
   12.6619   -3.3195    0.0000 C   0  0  0  0  0  0  0  0  0  0  0  0
   11.5155   -3.9868    0.0000 O   0  0  0  0  0  0  0  0  0  0  0  0
   10.3691   -3.3195    0.0000 C   0  0  0  0  0  0  0  0  0  0  0  0
    9.2055   -3.9868    0.0000 C   0  0  0  0  0  0  0  0  0  0  0  0
    8.0591   -3.3195    0.0000 O   0  0  0  0  0  0  0  0  0  0  0  0
    6.9127   -3.9868    0.0000 C   0  0  0  0  0  0  0  0  0  0  0  0
    5.7663   -3.3195    0.0000 C   0  0  0  0  0  0  0  0  0  0  0  0
    4.6028   -3.9868    0.0000 O   0  0  0  0  0  0  0  0  0  0  0  0
    3.4564   -3.3195    0.0000 C   0  0  0  0  0  0  0  0  0  0  0  0
    2.3099   -3.9868    0.0000 C   0  0  0  0  0  0  0  0  0  0  0  0
    1.1464   -3.3195    0.0000 C   0  0  0  0  0  0  0  0  0  0  0  0
    0.0000   -3.9868    0.0000 C   0  0  0  0  0  0  0  0  0  0  0  0
   15.2456   -7.2892    0.0000 O   0  0  0  0  0  0  0  0  0  0  0  0
   16.5631   -7.4260    0.0000 C   0  0  0  0  0  0  0  0  0  0  0  0
   17.1107   -6.2112    0.0000 O   0  0  0  0  0  0  0  0  0  0  0  0
  1  2  1  0  0  0  0
  2  3  1  0  0  0  0
  3  4  1  0  0  0  0
  4  5  2  0  0  0  0
  4  9  1  0  0  0  0
  5  6  1  0  0  0  0
  6  7  2  0  0  0  0
  6 24  1  0  0  0  0
  7  8  1  0  0  0  0
  7 22  1  0  0  0  0
  8  9  2  0  0  0  0
  9 10  1  0  0  0  0
 10 11  1  0  0  0  0
 11 12  1  0  0  0  0
 12 13  1  0  0  0  0
 13 14  1  0  0  0  0
 14 15  1  0  0  0  0
 15 16  1  0  0  0  0
 16 17  1  0  0  0  0
 17 18  1  0  0  0  0
 18 19  1  0  0  0  0
 19 20  1  0  0  0  0
 20 21  1  0  0  0  0
 22 23  1  0  0  0  0
 23 24  1  0  0  0  0
M  END
>  <DSSTox_RID>
21166

>  <DSSTox_CID>
1166

>  <DSSTox_Generic_SID>
21166

>  <DSSTox_FileID>
1219_CPDBAS_v5d

>  <STRUCTURE_Formula>
C19H30O5

>  <STRUCTURE_MolecularWeight>
338.4385

>  <STRUCTURE_ChemicalType>
defined organic

>  <STRUCTURE_TestedForm_DefinedOrganic>
parent

>  <STRUCTURE_Shown>
tested chemical

>  <TestSubstance_ChemicalName>
Piperonyl butoxide

>  <TestSubstance_CASRN>
51-03-6

>  <TestSubstance_Description>
single chemical compound

>  <STRUCTURE_ChemicalName_IUPAC>
5-{[(2-{[2-(butyloxy)ethyl]oxy}ethyl)oxy]methyl}-6-propyl-1,3-benzodioxole

>  <STRUCTURE_SMILES>
CCCC1=CC2=C(C=C1COCCOCCOCCCC)OCO2

>  <STRUCTURE_Parent_SMILES>
CCCC1=CC2=C(C=C1COCCOCCOCCCC)OCO2

>  <STRUCTURE_InChI>
InChI=1/C19H30O5/c1-3-5-7-20-8-9-21-10-11-22-14-17-13-19-18(23-15-24-19)12-16(17)6-4-2/h12-13H,3-11,14-15H2,1-2H3

>  <STRUCTURE_InChIKey>
FIPWRIJSWJWJAI-UHFFFAOYAD

>  <StudyType>
Carcinogenicity

>  <Endpoint>
TD50; Tumor Target Sites

>  <Species>
rat; mouse

>  <ActivityOutcome_CPDBAS_Mutagenicity>
inactive

>  <TD50_Rat_mg>
633

>  <TD50_Rat_mmol>
1.87

>  <ActivityScore_CPDBAS_Rat>
23

>  <TD50_Rat_Note>
TD50 is harmonic mean of more than one positive test

>  <TargetSites_Rat_Male>
liver

>  <TargetSites_Rat_Female>
liver

>  <ActivityOutcome_CPDBAS_Rat>
active

>  <TD50_Mouse_mg>
291

>  <TD50_Mouse_mmol>
0.86

>  <ActivityScore_CPDBAS_Mouse>
29

>  <TD50_Mouse_Note>
TD50 is harmonic mean of more than one positive test

>  <TargetSites_Mouse_Male>
liver

>  <TargetSites_Mouse_Female>
liver

>  <ActivityOutcome_CPDBAS_Mouse>
active

>  <ActivityOutcome_CPDBAS_SingleCellCall>
active

>  <ActivityOutcome_CPDBAS_MultiCellCall>
active

>  <ActivityOutcome_CPDBAS_MultiCellCall_Details>
multisex active; multispecies active

>  <Note_CPDBAS>
TD50_Mouse modified v5a

>  <NTP_TechnicalReport>
TR 120

>  <ChemicalPage_URL>
http://potency.berkeley.edu/chempages/PIPERONYL%20BUTOXIDE.html

$$$$



 24 25  0  0  0  0  0  0  0  0999 V2000
   16.1183    0.0000    0.0000 C   0  0  0  0  0  0  0  0  0  0  0  0
   16.1183   -1.3346    0.0000 C   0  0  0  0  0  0  0  0  0  0  0  0
   14.9718   -2.0020    0.0000 C   0  0  0  0  0  0  0  0  0  0  0  0
   14.9718   -3.3195    0.0000 C   0  0  0  0  0  0  0  0  0  0  0  0
   16.1183   -3.9868    0.0000 C   0  0  0  0  0  0  0  0  0  0  0  0
   16.1183   -5.3214    0.0000 C   0  0  0  0  0  0  0  0  0  0  0  0
   14.9718   -5.9887    0.0000 C   0  0  0  0  0  0  0  0  0  0  0  0
   13.8254   -5.3214    0.0000 C   0  0  0  0  0  0  0  0  0  0  0  0
   13.8254   -3.9868    0.0000 C   0  0  0  0  0  0  0  0  0  0  0  0
   12.6619   -3.3195    0.0000 C   0  0  0  0  0  0  0  0  0  0  0  0
   11.5155   -3.9868    0.0000 O   0  0  0  0  0  0  0  0  0  0  0  0
   10.3691   -3.3195    0.0000 C   0  0  0  0  0  0  0  0  0  0  0  0
    9.2055   -3.9868    0.0000 C   0  0  0  0  0  0  0  0  0  0  0  0
    8.0591   -3.3195    0.0000 O   0  0  0  0  0  0  0  0  0  0  0  0
    6.9127   -3.9868    0.0000 C   0  0  0  0  0  0  0  0  0  0  0  0
    5.7663   -3.3195    0.0000 C   0  0  0  0  0  0  0  0  0  0  0  0
    4.6028   -3.9868    0.0000 O   0  0  0  0  0  0  0  0  0  0  0  0
    3.4564   -3.3195    0.0000 C   0  0  0  0  0  0  0  0  0  0  0  0
    2.3099   -3.9868    0.0000 C   0  0  0  0  0  0  0  0  0  0  0  0
    1.1464   -3.3195    0.0000 C   0  0  0  0  0  0  0  0  0  0  0  0
    0.0000   -3.9868    0.0000 C   0  0  0  0  0  0  0  0  0  0  0  0
   15.2456   -7.2892    0.0000 O   0  0  0  0  0  0  0  0  0  0  0  0
   16.5631   -7.4260    0.0000 C   0  0  0  0  0  0  0  0  0  0  0  0
   17.1107   -6.2112    0.0000 O   0  0  0  0  0  0  0  0  0  0  0  0
  1  2  1  0  0  0  0
  2  3  1  0  0  0  0
  3  4  1  0  0  0  0
  4  5  2  0  0  0  0
  4  9  1  0  0  0  0
  5  6  1  0  0  0  0
  6  7  2  0  0  0  0
  6 24  1  0  0  0  0
  7  8  1  0  0  0  0
  7 22  1  0  0  0  0
  8  9  2  0  0  0  0
  9 10  1  0  0  0  0
 10 11  1  0  0  0  0
 11 12  1  0  0  0  0
 12 13  1  0  0  0  0
 13 14  1  0  0  0  0
 14 15  1  0  0  0  0
 15 16  1  0  0  0  0
 16 17  1  0  0  0  0
 17 18  1  0  0  0  0
 18 19  1  0  0  0  0
 19 20  1  0  0  0  0
 20 21  1  0  0  0  0
 22 23  1  0  0  0  0
 23 24  1  0  0  0  0
M  END
>  <DSSTox_RID>
21167

>  <DSSTox_CID>
1166

>  <DSSTox_Generic_SID>
21167

>  <DSSTox_FileID>
1220_CPDBAS_v5d

>  <STRUCTURE_Formula>
C19H30O5

>  <STRUCTURE_MolecularWeight>
338.443

>  <STRUCTURE_ChemicalType>
defined organic

>  <STRUCTURE_TestedForm_DefinedOrganic>
parent

>  <STRUCTURE_Shown>
tested chemical

>  <TestSubstance_ChemicalName>
Piperonyl butoxide in solvent

>  <TestSubstance_CASRN>
51-03-6

>  <TestSubstance_Description>
single chemical compound

>  <ChemicalNote>
purity unknown

>  <STRUCTURE_ChemicalName_IUPAC>
5-{[(2-{[2-(butyloxy)ethyl]oxy}ethyl)oxy]methyl}-6-propyl-1,3-benzodioxole

>  <STRUCTURE_SMILES>
CCCC1=CC2=C(C=C1COCCOCCOCCCC)OCO2

>  <STRUCTURE_Parent_SMILES>
CCCC1=CC2=C(C=C1COCCOCCOCCCC)OCO2

>  <STRUCTURE_InChI>
InChI=1/C19H30O5/c1-3-5-7-20-8-9-21-10-11-22-14-17-13-19-18(23-15-24-19)12-16(17)6-4-2/h12-13H,3-11,14-15H2,1-2H3

>  <STRUCTURE_InChIKey>
FIPWRIJSWJWJAI-UHFFFAOYAD

>  <StudyType>
Carcinogenicity

>  <Endpoint>
TD50; Tumor Target Sites

>  <Species>
mouse

>  <ActivityOutcome_CPDBAS_Mutagenicity>
inactive

>  <ActivityScore_CPDBAS_Mouse>
0

>  <TD50_Mouse_Note>
no positive results

>  <TargetSites_Mouse_Male>
no positive results

>  <TargetSites_Mouse_Female>
no positive results

>  <ActivityOutcome_CPDBAS_Mouse>
inactive

>  <ActivityOutcome_CPDBAS_SingleCellCall>
inactive

>  <ActivityOutcome_CPDBAS_MultiCellCall>
inactive

>  <ActivityOutcome_CPDBAS_MultiCellCall_Details>
multisex inactive

>  <ChemicalPage_URL>
http://potency.berkeley.edu/chempages/PIPERONYL%20BUTOXIDE%20IN%20SOLVENT.html

$$$$



 22 23  0  0  0  0  0  0  0  0999 V2000
    9.2189    0.0000    0.0000 C   0  0  0  0  0  0  0  0  0  0  0  0
    9.2189   -1.3384    0.0000 C   0  0  3  0  0  0  0  0  0  0  0  0
   10.3697   -2.0014    0.0000 C   0  0  0  0  0  0  0  0  0  0  0  0
   10.3697   -3.3273    0.0000 C   0  0  0  0  0  0  0  0  0  0  0  0
   11.5205   -3.9903    0.0000 C   0  0  0  0  0  0  0  0  0  0  0  0
   11.5205   -5.3287    0.0000 C   0  0  0  0  0  0  0  0  0  0  0  0
   10.3697   -5.9917    0.0000 C   0  0  0  0  0  0  0  0  0  0  0  0
    9.2189   -5.3287    0.0000 C   0  0  0  0  0  0  0  0  0  0  0  0
    9.2189   -3.9903    0.0000 C   0  0  0  0  0  0  0  0  0  0  0  0
   10.6449   -7.2926    0.0000 O   0  0  0  0  0  0  0  0  0  0  0  0
   11.9708   -7.4302    0.0000 C   0  0  0  0  0  0  0  0  0  0  0  0
   12.5087   -6.2168    0.0000 O   0  0  0  0  0  0  0  0  0  0  0  0
    8.0681   -2.0014    0.0000 S   0  0  3  0  0  0  0  0  0  0  0  0
    6.9173   -1.3384    0.0000 O   0  0  0  0  0  0  0  0  0  0  0  0
    8.0681   -3.3273    0.0000 C   0  0  0  0  0  0  0  0  0  0  0  0
    6.9173   -3.9903    0.0000 C   0  0  0  0  0  0  0  0  0  0  0  0
    5.7540   -3.3273    0.0000 C   0  0  0  0  0  0  0  0  0  0  0  0
    4.6032   -3.9903    0.0000 C   0  0  0  0  0  0  0  0  0  0  0  0
    3.4524   -3.3273    0.0000 C   0  0  0  0  0  0  0  0  0  0  0  0
    2.3016   -3.9903    0.0000 C   0  0  0  0  0  0  0  0  0  0  0  0
    1.1508   -3.3273    0.0000 C   0  0  0  0  0  0  0  0  0  0  0  0
    0.0000   -3.9903    0.0000 C   0  0  0  0  0  0  0  0  0  0  0  0
  1  2  1  0  0  0  0
  2  3  1  0  0  0  0
  2 13  1  0  0  0  0
  3  4  1  0  0  0  0
  4  5  2  0  0  0  0
  4  9  1  0  0  0  0
  5  6  1  0  0  0  0
  6  7  2  0  0  0  0
  6 12  1  0  0  0  0
  7  8  1  0  0  0  0
  7 10  1  0  0  0  0
  8  9  2  0  0  0  0
 10 11  1  0  0  0  0
 11 12  1  0  0  0  0
 13 14  2  0  0  0  0
 13 15  1  0  0  0  0
 15 16  1  0  0  0  0
 16 17  1  0  0  0  0
 17 18  1  0  0  0  0
 18 19  1  0  0  0  0
 19 20  1  0  0  0  0
 20 21  1  0  0  0  0
 21 22  1  0  0  0  0
M  END
>  <DSSTox_RID>
21168

>  <DSSTox_CID>
1168

>  <DSSTox_Generic_SID>
21168

>  <DSSTox_FileID>
1221_CPDBAS_v5d

>  <STRUCTURE_Formula>
C18H28O3S

>  <STRUCTURE_MolecularWeight>
324.4781

>  <STRUCTURE_ChemicalType>
defined organic

>  <STRUCTURE_TestedForm_DefinedOrganic>
parent

>  <STRUCTURE_Shown>
tested chemical

>  <TestSubstance_ChemicalName>
Piperonyl sulfoxide

>  <TestSubstance_CASRN>
120-62-7

>  <TestSubstance_Description>
single chemical compound

>  <STRUCTURE_ChemicalName_IUPAC>
5-[2-(octylsulfinyl)propyl]-1,3-benzodioxole

>  <STRUCTURE_SMILES>
CC(CC1=CC2=C(C=C1)OCO2)S(=O)CCCCCCCC

>  <STRUCTURE_Parent_SMILES>
CC(CC1=CC2=C(C=C1)OCO2)S(=O)CCCCCCCC

>  <STRUCTURE_InChI>
InChI=1/C18H28O3S/c1-3-4-5-6-7-8-11-22(19)15(2)12-16-9-10-17-18(13-16)21-14-20-17/h9-10,13,15H,3-8,11-12,14H2,1-2H3

>  <STRUCTURE_InChIKey>
ATTZFSUZZUNHBP-UHFFFAOYAV

>  <StudyType>
Carcinogenicity

>  <Endpoint>
TD50; Tumor Target Sites

>  <Species>
rat; mouse

>  <ActivityOutcome_CPDBAS_Mutagenicity>
inactive

>  <ActivityScore_CPDBAS_Rat>
0

>  <TD50_Rat_Note>
no positive results

>  <TargetSites_Rat_Male>
no positive results

>  <TargetSites_Rat_Female>
no positive results

>  <ActivityOutcome_CPDBAS_Rat>
inactive

>  <TD50_Mouse_mg>
62.2

>  <TD50_Mouse_mmol>
0.192

>  <ActivityScore_CPDBAS_Mouse>
36

>  <TargetSites_Mouse_Male>
liver

>  <TargetSites_Mouse_Female>
no positive results

>  <ActivityOutcome_CPDBAS_Mouse>
active

>  <ActivityOutcome_CPDBAS_SingleCellCall>
active

>  <NTP_TechnicalReport>
TR 124

>  <ChemicalPage_URL>
http://potency.berkeley.edu/chempages/PIPERONYL%20SULFOXIDE.html

$$$$



 23 25  0  0  0  0  0  0  0  0999 V2000
    4.6610   -4.7674    0.0000 O   0  0  0  0  0  0  0  0  0  0  0  0
    3.9906   -3.6181    0.0000 C   0  0  0  0  0  0  0  0  0  0  0  0
    4.6610   -2.4582    0.0000 C   0  0  0  0  0  0  0  0  0  0  0  0
    5.9912   -2.4582    0.0000 C   0  0  0  0  0  0  0  0  0  0  0  0
    6.6510   -3.6181    0.0000 O   0  0  0  0  0  0  0  0  0  0  0  0
    6.6510   -1.3089    0.0000 N   0  0  0  0  0  0  0  0  0  0  0  0
    7.9812   -1.3089    0.0000 C   0  0  0  0  0  0  0  0  0  0  0  0
    8.6516   -0.1596    0.0000 N   0  0  0  0  0  0  0  0  0  0  0  0
    9.9711   -0.1596    0.0000 C   0  0  0  0  0  0  0  0  0  0  0  0
   10.6415   -1.3089    0.0000 C   0  0  0  0  0  0  0  0  0  0  0  0
    9.9711   -2.4582    0.0000 C   0  0  0  0  0  0  0  0  0  0  0  0
    8.6516   -2.4582    0.0000 C   0  0  0  0  0  0  0  0  0  0  0  0
    3.9906   -1.3089    0.0000 N   0  0  0  0  0  0  0  0  0  0  0  0
    2.6604   -1.3089    0.0000 S   0  0  0  0  0  0  0  0  0  0  0  0
    1.4153   -0.8513    0.0000 O   0  0  0  0  0  0  0  0  0  0  0  0
    2.8945    0.0000    0.0000 O   0  0  0  0  0  0  0  0  0  0  0  0
    1.9900   -2.4582    0.0000 C   0  0  0  0  0  0  0  0  0  0  0  0
    2.6604   -3.6181    0.0000 C   0  0  0  0  0  0  0  0  0  0  0  0
    1.9900   -4.7674    0.0000 C   0  0  0  0  0  0  0  0  0  0  0  0
    0.6598   -4.7674    0.0000 C   0  0  0  0  0  0  0  0  0  0  0  0
    0.0000   -3.6181    0.0000 C   0  0  0  0  0  0  0  0  0  0  0  0
    0.6598   -2.4582    0.0000 C   0  0  0  0  0  0  0  0  0  0  0  0
    4.6610   -0.1596    0.0000 C   0  0  0  0  0  0  0  0  0  0  0  0
  1  2  1  0  0  0  0
  2  3  2  0  0  0  0
  2 18  1  0  0  0  0
  3  4  1  0  0  0  0
  3 13  1  0  0  0  0
  4  5  2  0  0  0  0
  4  6  1  0  0  0  0
  6  7  1  0  0  0  0
  7  8  2  0  0  0  0
  7 12  1  0  0  0  0
  8  9  1  0  0  0  0
  9 10  2  0  0  0  0
 10 11  1  0  0  0  0
 11 12  2  0  0  0  0
 13 14  1  0  0  0  0
 13 23  1  0  0  0  0
 14 15  2  0  0  0  0
 14 16  2  0  0  0  0
 14 17  1  0  0  0  0
 17 18  2  0  0  0  0
 17 22  1  0  0  0  0
 18 19  1  0  0  0  0
 19 20  2  0  0  0  0
 20 21  1  0  0  0  0
 21 22  2  0  0  0  0
M  END
>  <DSSTox_RID>
21170

>  <DSSTox_CID>
1170

>  <DSSTox_Generic_SID>
21170

>  <DSSTox_FileID>
1223_CPDBAS_v5d

>  <STRUCTURE_Formula>
C15H13N3O4S

>  <STRUCTURE_MolecularWeight>
331.3454

>  <STRUCTURE_ChemicalType>
defined organic

>  <STRUCTURE_TestedForm_DefinedOrganic>
parent

>  <STRUCTURE_Shown>
tested chemical

>  <TestSubstance_ChemicalName>
Piroxicam

>  <TestSubstance_CASRN>
36322-90-4

>  <TestSubstance_Description>
single chemical compound

>  <STRUCTURE_ChemicalName_IUPAC>
4-hydroxy-2-methyl-N-pyridin-2-yl-2H-1,2-benzothiazine-3-carboxamide 1,1-dioxide

>  <STRUCTURE_SMILES>
OC1=C(C(=O)NC2=NC=CC=C2)N(S(=O)(=O)C3=C1C=CC=C3)C

>  <STRUCTURE_Parent_SMILES>
OC1=C(C(=O)NC2=NC=CC=C2)N(S(=O)(=O)C3=C1C=CC=C3)C

>  <STRUCTURE_InChI>
InChI=1/C15H13N3O4S/c1-18-13(15(20)17-12-8-4-5-9-16-12)14(19)10-6-2-3-7-11(10)23(18,21)22/h2-9,19H,1H3,(H,16,17,20)/f/h17H

>  <STRUCTURE_InChIKey>
QYSPLQLAKJAUJT-HCKMINDGCA

>  <StudyType>
Carcinogenicity

>  <Endpoint>
TD50; Tumor Target Sites

>  <Species>
rat

>  <ActivityScore_CPDBAS_Rat>
0

>  <TD50_Rat_Note>
no positive results

>  <TargetSites_Rat_Male>
no positive results

>  <ActivityOutcome_CPDBAS_Rat>
inactive

>  <ActivityOutcome_CPDBAS_SingleCellCall>
inactive

>  <ChemicalPage_URL>
http://potency.berkeley.edu/chempages/PIROXICAM.html

$$$$



  7  7  0  0  0  0  0  0  0  0999 V2000
    2.6594   -0.9392    0.0000 O   0  0  0  0  0  0  0  0  0  0  0  0
    2.6594   -2.2707    0.0000 C   0  0  0  0  0  0  0  0  0  0  0  0
    1.3279   -2.2707    0.0000 C   0  0  0  0  0  0  0  0  0  0  0  0
    0.0000   -2.2707    0.0000 C   0  0  0  0  0  0  0  0  0  0  0  0
    1.3279   -3.5986    0.0000 C   0  0  0  0  0  0  0  0  0  0  0  0
    1.3279   -0.9392    0.0000 C   0  0  0  0  0  0  0  0  0  0  0  0
    0.3886    0.0000    0.0000 O   0  0  0  0  0  0  0  0  0  0  0  0
  1  2  1  0  0  0  0
  1  6  1  0  0  0  0
  2  3  1  0  0  0  0
  3  4  1  0  0  0  0
  3  5  1  0  0  0  0
  3  6  1  0  0  0  0
  6  7  2  0  0  0  0
M  END
>  <DSSTox_RID>
21171

>  <DSSTox_CID>
1171

>  <DSSTox_Generic_SID>
21171

>  <DSSTox_FileID>
1224_CPDBAS_v5d

>  <STRUCTURE_Formula>
C5H8O2

>  <STRUCTURE_MolecularWeight>
100.1158

>  <STRUCTURE_ChemicalType>
defined organic

>  <STRUCTURE_TestedForm_DefinedOrganic>
parent

>  <STRUCTURE_Shown>
tested chemical

>  <TestSubstance_ChemicalName>
Pivalolactone

>  <TestSubstance_CASRN>
1955-45-9

>  <TestSubstance_Description>
single chemical compound

>  <STRUCTURE_ChemicalName_IUPAC>
3,3-dimethyloxetan-2-one

>  <STRUCTURE_SMILES>
O(CC1(C)C)C1=O

>  <STRUCTURE_Parent_SMILES>
O(CC1(C)C)C1=O

>  <STRUCTURE_InChI>
InChI=1/C5H8O2/c1-5(2)3-7-4(5)6/h3H2,1-2H3

>  <STRUCTURE_InChIKey>
ULKFLOVGORAZDI-UHFFFAOYAS

>  <StudyType>
Carcinogenicity

>  <Endpoint>
TD50; Tumor Target Sites

>  <Species>
rat; mouse

>  <ActivityOutcome_CPDBAS_Mutagenicity>
active

>  <TD50_Rat_mg>
211

>  <TD50_Rat_mmol>
2.11

>  <ActivityScore_CPDBAS_Rat>
22

>  <TD50_Rat_Note>
TD50 is harmonic mean of more than one positive test

>  <TargetSites_Rat_Male>
stomach

>  <TargetSites_Rat_Female>
stomach

>  <ActivityOutcome_CPDBAS_Rat>
active

>  <ActivityScore_CPDBAS_Mouse>
0

>  <TD50_Mouse_Note>
no positive results

>  <TargetSites_Mouse_Male>
no positive results

>  <TargetSites_Mouse_Female>
no positive results

>  <ActivityOutcome_CPDBAS_Mouse>
inactive

>  <ActivityOutcome_CPDBAS_SingleCellCall>
active

>  <ActivityOutcome_CPDBAS_MultiCellCall>
active

>  <ActivityOutcome_CPDBAS_MultiCellCall_Details>
multisex active

>  <NTP_TechnicalReport>
TR 140

>  <ChemicalPage_URL>
http://potency.berkeley.edu/chempages/PIVALOLACTONE.html

$$$$



 19 19  0  0  0  0  0  0  0  0999 V2000
   11.5045   -5.3536    0.0000 C   0  0  0  0  0  0  0  0  0  0  0  0
   11.5045   -4.0247    0.0000 N   0  0  0  0  0  0  0  0  0  0  0  0
   12.6563   -6.0244    0.0000 O   0  0  0  0  0  0  0  0  0  0  0  0
    2.3034   -1.3289    0.0000 N   0  0  0  0  0  0  0  0  0  0  0  0
   10.3528   -3.3539    0.0000 C   0  0  0  0  0  0  0  0  0  0  0  0
    6.9103   -1.3289    0.0000 O   0  0  0  0  0  0  0  0  0  0  0  0
    4.5942   -1.3289    0.0000 C   0  0  3  0  0  0  0  0  0  0  0  0
    8.0620   -2.0250    0.0000 C   0  0  0  0  0  0  0  0  0  0  0  0
    3.4552   -1.9870    0.0000 C   0  0  0  0  0  0  0  0  0  0  0  0
    5.7459   -1.9870    0.0000 C   0  0  0  0  0  0  0  0  0  0  0  0
   10.3528   -2.0250    0.0000 C   0  0  0  0  0  0  0  0  0  0  0  0
    9.2011   -4.0120    0.0000 C   0  0  0  0  0  0  0  0  0  0  0  0
    9.2011   -1.3416    0.0000 C   0  0  0  0  0  0  0  0  0  0  0  0
    8.0620   -3.3539    0.0000 C   0  0  0  0  0  0  0  0  0  0  0  0
    4.5942    0.0000    0.0000 O   0  0  0  0  0  0  0  0  0  0  0  0
    1.1517   -1.9870    0.0000 C   0  0  0  0  0  0  0  0  0  0  0  0
   10.3528   -6.0244    0.0000 C   0  0  0  0  0  0  0  0  0  0  0  0
    0.0000   -1.3289    0.0000 C   0  0  0  0  0  0  0  0  0  0  0  0
    1.1517   -3.3286    0.0000 C   0  0  0  0  0  0  0  0  0  0  0  0
  1  2  1  0  0  0  0
  1  3  2  0  0  0  0
  1 17  1  0  0  0  0
  2  5  1  0  0  0  0
  4  9  1  0  0  0  0
  4 16  1  0  0  0  0
  5 11  1  0  0  0  0
  5 12  2  0  0  0  0
  6  8  1  0  0  0  0
  6 10  1  0  0  0  0
  7 10  1  0  0  0  0
  7  9  1  0  0  0  0
  7 15  1  0  0  0  0
  8 14  2  0  0  0  0
  8 13  1  0  0  0  0
 11 13  2  0  0  0  0
 12 14  1  0  0  0  0
 16 18  1  0  0  0  0
 16 19  1  0  0  0  0
M  END
>  <DSSTox_RID>
21179

>  <DSSTox_CID>
1179

>  <DSSTox_Generic_SID>
21179

>  <DSSTox_FileID>
1235_CPDBAS_v5d

>  <STRUCTURE_Formula>
C14H22N2O3

>  <STRUCTURE_MolecularWeight>
266.3361

>  <STRUCTURE_ChemicalType>
defined organic

>  <STRUCTURE_TestedForm_DefinedOrganic>
parent

>  <STRUCTURE_Shown>
tested chemical

>  <TestSubstance_ChemicalName>
Practolol

>  <TestSubstance_CASRN>
6673-35-4

>  <TestSubstance_Description>
single chemical compound

>  <STRUCTURE_ChemicalName_IUPAC>
N-[4-({2-hydroxy-3-[(1-methylethyl)amino]propyl}oxy)phenyl]acetamide

>  <STRUCTURE_SMILES>
CC(C)NCC(O)COc1ccc(cc1)NC(C)=O

>  <STRUCTURE_Parent_SMILES>
CC(C)NCC(O)COc1ccc(cc1)NC(C)=O

>  <STRUCTURE_InChI>
InChI=1/C14H22N2O3/c1-10(2)15-8-13(18)9-19-14-6-4-12(5-7-14)16-11(3)17/h4-7,10,13,15,18H,8-9H2,1-3H3,(H,16,17)/f/h16H

>  <STRUCTURE_InChIKey>
DURULFYMVIFBIR-WYUMXYHSCT

>  <StudyType>
Carcinogenicity

>  <Endpoint>
TD50; Tumor Target Sites

>  <Species>
rat; mouse

>  <ActivityScore_CPDBAS_Rat>
0

>  <TD50_Rat_Note>
no positive results

>  <TargetSites_Rat_Male>
no positive results

>  <TargetSites_Rat_Female>
no positive results

>  <ActivityOutcome_CPDBAS_Rat>
inactive

>  <ActivityScore_CPDBAS_Mouse>
0

>  <TD50_Mouse_Note>
no positive results

>  <TargetSites_Mouse_Male>
no positive results

>  <TargetSites_Mouse_Female>
no positive results

>  <ActivityOutcome_CPDBAS_Mouse>
inactive

>  <ActivityOutcome_CPDBAS_SingleCellCall>
inactive

>  <ActivityOutcome_CPDBAS_MultiCellCall>
inactive

>  <ActivityOutcome_CPDBAS_MultiCellCall_Details>
multisex inactive; multispecies inactive

>  <Note_CPDBAS>
Rat added v2a; Mouse added v2a

>  <ChemicalPage_URL>
http://potency.berkeley.edu/chempages/PRACTOLOL.html

$$$$



 23 26  0  0  0  0  0  0  0  0999 V2000
    8.0865   -2.1233    0.0000 O   0  0  0  0  0  0  0  0  0  0  0  0
    6.7668   -2.3218    0.0000 C   0  0  0  0  0  0  0  0  0  0  0  0
    6.3997   -3.5719    0.0000 N   0  0  0  0  0  0  0  0  0  0  0  0
    5.1396   -4.0780    0.0000 C   0  0  0  0  0  0  0  0  0  0  0  0
    5.1396   -5.4075    0.0000 C   0  0  0  0  0  0  0  0  0  0  0  0
    3.9887   -6.0723    0.0000 C   0  0  0  0  0  0  0  0  0  0  0  0
    2.8377   -5.4075    0.0000 C   0  0  0  0  0  0  0  0  0  0  0  0
    2.8377   -4.0780    0.0000 C   0  0  0  0  0  0  0  0  0  0  0  0
    3.9887   -3.4132    0.0000 C   0  0  0  0  0  0  0  0  0  0  0  0
    3.7803   -2.0836    0.0000 C   0  0  0  0  0  0  0  0  0  0  0  0
    4.7130   -1.1410    0.0000 N   0  0  0  0  0  0  0  0  0  0  0  0
    6.0227   -1.2204    0.0000 C   0  0  0  0  0  0  0  0  0  0  0  0
    2.5103   -1.6867    0.0000 C   0  0  0  0  0  0  0  0  0  0  0  0
    1.5677   -2.6293    0.0000 C   0  0  0  0  0  0  0  0  0  0  0  0
    0.2778   -2.2225    0.0000 C   0  0  0  0  0  0  0  0  0  0  0  0
    0.0000   -0.9426    0.0000 C   0  0  0  0  0  0  0  0  0  0  0  0
    0.9426    0.0000    0.0000 C   0  0  0  0  0  0  0  0  0  0  0  0
    2.2225   -0.4167    0.0000 C   0  0  0  0  0  0  0  0  0  0  0  0
    1.6867   -6.0723    0.0000 Cl  0  0  0  0  0  0  0  0  0  0  0  0
    7.3324   -4.5145    0.0000 C   0  0  0  0  0  0  0  0  0  0  0  0
    8.6421   -4.1573    0.0000 C   0  0  0  0  0  0  0  0  0  0  0  0
    9.5748   -3.2147    0.0000 C   0  0  0  0  0  0  0  0  0  0  0  0
    9.9221   -4.4947    0.0000 C   0  0  0  0  0  0  0  0  0  0  0  0
  1  2  2  0  0  0  0
  2  3  1  0  0  0  0
  2 12  1  0  0  0  0
  3  4  1  0  0  0  0
  3 20  1  0  0  0  0
  4  5  2  0  0  0  0
  4  9  1  0  0  0  0
  5  6  1  0  0  0  0
  6  7  2  0  0  0  0
  7  8  1  0  0  0  0
  7 19  1  0  0  0  0
  8  9  2  0  0  0  0
  9 10  1  0  0  0  0
 10 11  2  0  0  0  0
 10 13  1  0  0  0  0
 11 12  1  0  0  0  0
 13 14  2  0  0  0  0
 13 18  1  0  0  0  0
 14 15  1  0  0  0  0
 15 16  2  0  0  0  0
 16 17  1  0  0  0  0
 17 18  2  0  0  0  0
 20 21  1  0  0  0  0
 21 22  1  0  0  0  0
 21 23  1  0  0  0  0
 22 23  1  0  0  0  0
M  END
>  <DSSTox_RID>
21181

>  <DSSTox_CID>
1181

>  <DSSTox_Generic_SID>
21181

>  <DSSTox_FileID>
1237_CPDBAS_v5d

>  <STRUCTURE_Formula>
C19H17ClN2O

>  <STRUCTURE_MolecularWeight>
324.8091

>  <STRUCTURE_ChemicalType>
defined organic

>  <STRUCTURE_TestedForm_DefinedOrganic>
parent

>  <STRUCTURE_Shown>
tested chemical

>  <TestSubstance_ChemicalName>
Prazepam

>  <TestSubstance_CASRN>
2955-38-6

>  <TestSubstance_Description>
single chemical compound

>  <STRUCTURE_ChemicalName_IUPAC>
7-chloro-1-(cyclopropylmethyl)-5-phenyl-1,3-dihydro-2H-1,4-benzodiazepin-2-one

>  <STRUCTURE_SMILES>
O=C1N(C2=CC=C(C=C2C(=NC1)C3=CC=CC=C3)Cl)CC4CC4

>  <STRUCTURE_Parent_SMILES>
O=C1N(C2=CC=C(C=C2C(=NC1)C3=CC=CC=C3)Cl)CC4CC4

>  <STRUCTURE_InChI>
InChI=1/C19H17ClN2O/c20-15-8-9-17-16(10-15)19(14-4-2-1-3-5-14)21-11-18(23)22(17)12-13-6-7-13/h1-5,8-10,13H,6-7,11-12H2

>  <STRUCTURE_InChIKey>
MWQCHHACWWAQLJ-UHFFFAOYAP

>  <StudyType>
Carcinogenicity

>  <Endpoint>
TD50; Tumor Target Sites

>  <Species>
rat; mouse

>  <ActivityScore_CPDBAS_Rat>
0

>  <TD50_Rat_Note>
no positive results

>  <TargetSites_Rat_Male>
no positive results

>  <TargetSites_Rat_Female>
no positive results

>  <ActivityOutcome_CPDBAS_Rat>
inactive

>  <ActivityScore_CPDBAS_Mouse>
0

>  <TD50_Mouse_Note>
no positive results

>  <TargetSites_Mouse_Male>
no positive results

>  <TargetSites_Mouse_Female>
no positive results

>  <ActivityOutcome_CPDBAS_Mouse>
inactive

>  <ActivityOutcome_CPDBAS_SingleCellCall>
inactive

>  <ActivityOutcome_CPDBAS_MultiCellCall>
inactive

>  <ActivityOutcome_CPDBAS_MultiCellCall_Details>
multisex inactive; multispecies inactive

>  <ChemicalPage_URL>
http://potency.berkeley.edu/chempages/PRAZEPAM.html

$$$$



 23 26  0  0  0  0  0  0  0  0999 V2000
    4.6025   -7.9798    0.0000 O   0  0  0  0  0  0  0  0  0  0  0  0
    4.6025   -6.6499    0.0000 C   0  0  0  0  0  0  0  0  0  0  0  0
    3.4579   -5.9889    0.0000 N   0  0  0  0  0  0  0  0  0  0  0  0
    3.4579   -4.6589    0.0000 C   0  0  3  0  0  0  0  0  0  0  0  0
    2.3053   -3.9899    0.0000 C   0  0  0  0  0  0  0  0  0  0  0  0
    1.1526   -4.6589    0.0000 C   0  0  0  0  0  0  0  0  0  0  0  0
    0.0000   -3.9899    0.0000 C   0  0  0  0  0  0  0  0  0  0  0  0
    0.0000   -2.6599    0.0000 C   0  0  0  0  0  0  0  0  0  0  0  0
    1.1526   -1.9990    0.0000 C   0  0  0  0  0  0  0  0  0  0  0  0
    2.3053   -2.6599    0.0000 C   0  0  0  0  0  0  0  0  0  0  0  0
    1.1526   -5.9889    0.0000 C   0  0  0  0  0  0  0  0  0  0  0  0
    2.3053   -6.6499    0.0000 C   0  0  0  0  0  0  0  0  0  0  0  0
    4.6025   -3.9899    0.0000 C   0  0  0  0  0  0  0  0  0  0  0  0
    5.7552   -4.6589    0.0000 N   0  0  0  0  0  0  0  0  0  0  0  0
    5.7552   -5.9889    0.0000 C   0  0  0  0  0  0  0  0  0  0  0  0
    6.9078   -3.9899    0.0000 C   0  0  0  0  0  0  0  0  0  0  0  0
    8.0604   -4.6589    0.0000 O   0  0  0  0  0  0  0  0  0  0  0  0
    6.9078   -2.6599    0.0000 C   0  0  0  0  0  0  0  0  0  0  0  0
    5.7552   -1.9990    0.0000 C   0  0  0  0  0  0  0  0  0  0  0  0
    5.7552   -0.6690    0.0000 C   0  0  0  0  0  0  0  0  0  0  0  0
    6.9078    0.0000    0.0000 C   0  0  0  0  0  0  0  0  0  0  0  0
    8.0604   -0.6690    0.0000 C   0  0  0  0  0  0  0  0  0  0  0  0
    8.0604   -1.9990    0.0000 C   0  0  0  0  0  0  0  0  0  0  0  0
  1  2  2  0  0  0  0
  2  3  1  0  0  0  0
  2 15  1  0  0  0  0
  3  4  1  0  0  0  0
  3 12  1  0  0  0  0
  4  5  1  0  0  0  0
  4 13  1  0  0  0  0
  5  6  2  0  0  0  0
  5 10  1  0  0  0  0
  6  7  1  0  0  0  0
  6 11  1  0  0  0  0
  7  8  2  0  0  0  0
  8  9  1  0  0  0  0
  9 10  2  0  0  0  0
 11 12  1  0  0  0  0
 13 14  1  0  0  0  0
 14 15  1  0  0  0  0
 14 16  1  0  0  0  0
 16 17  2  0  0  0  0
 16 18  1  0  0  0  0
 18 19  1  0  0  0  0
 18 23  1  0  0  0  0
 19 20  1  0  0  0  0
 20 21  1  0  0  0  0
 21 22  1  0  0  0  0
 22 23  1  0  0  0  0
M  END
>  <DSSTox_RID>
21182

>  <DSSTox_CID>
1182

>  <DSSTox_Generic_SID>
21182

>  <DSSTox_FileID>
1238_CPDBAS_v5d

>  <STRUCTURE_Formula>
C19H24N2O2

>  <STRUCTURE_MolecularWeight>
312.4108

>  <STRUCTURE_ChemicalType>
defined organic

>  <STRUCTURE_TestedForm_DefinedOrganic>
parent

>  <STRUCTURE_Shown>
tested chemical

>  <TestSubstance_ChemicalName>
Praziquantel

>  <TestSubstance_CASRN>
55268-74-1

>  <TestSubstance_Description>
single chemical compound

>  <STRUCTURE_ChemicalName_IUPAC>
2-(cyclohexylcarbonyl)-1,2,3,6,7,11b-hexahydro-4H-pyrazino[2,1-a]isoquinolin-4-one

>  <STRUCTURE_SMILES>
O=C1N2C(C3=C(C=CC=C3)CC2)CN(C1)C(=O)C4CCCCC4

>  <STRUCTURE_Parent_SMILES>
O=C1N2C(C3=C(C=CC=C3)CC2)CN(C1)C(=O)C4CCCCC4

>  <STRUCTURE_InChI>
InChI=1/C19H24N2O2/c22-18-13-20(19(23)15-7-2-1-3-8-15)12-17-16-9-5-4-6-14(16)10-11-21(17)18/h4-6,9,15,17H,1-3,7-8,10-13H2

>  <STRUCTURE_InChIKey>
FSVJFNAIGNNGKK-UHFFFAOYAM

>  <StudyType>
Carcinogenicity

>  <Endpoint>
TD50; Tumor Target Sites

>  <Species>
rat; hamster

>  <ActivityOutcome_CPDBAS_Mutagenicity>
inactive

>  <ActivityScore_CPDBAS_Rat>
0

>  <TD50_Rat_Note>
no positive results

>  <TargetSites_Rat_Male>
no positive results

>  <TargetSites_Rat_Female>
no positive results

>  <ActivityOutcome_CPDBAS_Rat>
inactive

>  <ActivityScore_CPDBAS_Hamster>
0

>  <TD50_Hamster_Note>
no positive results

>  <TargetSites_Hamster_Male>
no positive results

>  <TargetSites_Hamster_Female>
no positive results

>  <ActivityOutcome_CPDBAS_Hamster>
inactive

>  <ActivityOutcome_CPDBAS_SingleCellCall>
inactive

>  <ActivityOutcome_CPDBAS_MultiCellCall>
inactive

>  <ActivityOutcome_CPDBAS_MultiCellCall_Details>
multisex inactive; multispecies inactive

>  <ChemicalPage_URL>
http://potency.berkeley.edu/chempages/PRAZIQUANTEL.html

$$$$



 47 51  0  0  1  0  0  0  0  0999 V2000
    7.0423   -3.7885    0.0000 C   0  0  2  0  0  0  0  0  0  0  0  0
    3.5746   -5.7286    0.0000 C   0  0  2  0  0  0  0  0  0  0  0  0
    8.3103   -3.3913    0.0000 C   0  0  1  0  0  0  0  0  0  0  0  0
    5.9425   -5.7286    0.0000 C   0  0  1  0  0  0  0  0  0  0  0  0
    7.0423   -5.0870    0.0000 C   0  0  2  0  0  0  0  0  0  0  0  0
    4.7204   -5.1175    0.0000 C   0  0  2  0  0  0  0  0  0  0  0  0
    3.5746   -7.0576    0.0000 C   0  0  0  0  0  0  0  0  0  0  0  0
    5.8813   -3.1164    0.0000 C   0  0  0  0  0  0  0  0  0  0  0  0
    4.7204   -3.8191    0.0000 C   0  0  2  0  0  0  0  0  0  0  0  0
    2.3831   -5.1175    0.0000 C   0  0  0  0  0  0  0  0  0  0  0  0
    8.3103   -2.0165    0.0000 C   0  0  0  0  0  0  0  0  0  0  0  0
    2.3831   -7.7756    0.0000 C   0  0  0  0  0  0  0  0  0  0  0  0
    9.0741   -4.3996    0.0000 C   0  0  0  0  0  0  0  0  0  0  0  0
    8.3103   -5.4536    0.0000 C   0  0  0  0  0  0  0  0  0  0  0  0
    5.9425   -7.0576    0.0000 C   0  0  0  0  0  0  0  0  0  0  0  0
    1.2068   -5.7286    0.0000 C   0  0  0  0  0  0  0  0  0  0  0  0
    1.2068   -7.0576    0.0000 C   0  0  0  0  0  0  0  0  0  0  0  0
    4.7204   -7.7756    0.0000 C   0  0  0  0  0  0  0  0  0  0  0  0
   11.7780   -1.3443    0.0000 C   0  0  0  0  0  0  0  0  0  0  0  0
   11.9307   -7.8214    0.0000 C   0  0  0  0  0  0  0  0  0  0  0  0
   11.9307   -9.1505    0.0000 N   0  0  0  0  0  0  0  0  0  0  0  0
    9.4560   -1.3443    0.0000 C   0  0  0  0  0  0  0  0  0  0  0  0
    7.0729   -1.3290    0.0000 O   0  0  0  0  0  0  0  0  0  0  0  0
   10.6017   -2.0470    0.0000 O   0  0  0  0  0  0  0  0  0  0  0  0
   11.7780    0.0000    0.0000 O   0  0  0  0  0  0  0  0  0  0  0  0
    0.0000   -7.7756    0.0000 O   0  0  0  0  0  0  0  0  0  0  0  0
    9.4407   -3.3913    0.0000 O   0  0  0  0  0  0  0  0  0  0  0  0
   13.0765   -7.1493    0.0000 C   0  0  0  0  0  0  0  0  0  0  0  0
   10.7697   -7.1493    0.0000 C   0  0  0  0  0  0  0  0  0  0  0  0
    7.0423   -2.4595    0.0000 C   0  0  0  0  0  0  0  0  0  0  0  0
    3.5594   -3.1164    0.0000 O   0  0  0  0  0  0  0  0  0  0  0  0
    3.5746   -4.3996    0.0000 C   0  0  0  0  0  0  0  0  0  0  0  0
   13.0765   -5.8355    0.0000 C   0  0  0  0  0  0  0  0  0  0  0  0
   10.7697   -5.8202    0.0000 C   0  0  0  0  0  0  0  0  0  0  0  0
   11.9307   -5.1481    0.0000 C   0  0  0  0  0  0  0  0  0  0  0  0
    8.5089   -9.8379    0.0000 Cl  0  0  0  0  0  0  0  0  0  0  0  0
   15.2762   -9.6851    0.0000 Cl  0  0  0  0  0  0  0  0  0  0  0  0
   13.0459   -1.9706    0.0000 C   0  0  0  0  0  0  0  0  0  0  0  0
   13.0459   -3.2844    0.0000 C   0  0  0  0  0  0  0  0  0  0  0  0
   13.0765   -9.8073    0.0000 C   0  0  0  0  0  0  0  0  0  0  0  0
   10.7850   -9.8226    0.0000 C   0  0  0  0  0  0  0  0  0  0  0  0
   11.9307   -3.8191    0.0000 C   0  0  0  0  0  0  0  0  0  0  0  0
   14.2222   -9.0741    0.0000 C   0  0  0  0  0  0  0  0  0  0  0  0
    9.6393   -9.1657    0.0000 C   0  0  0  0  0  0  0  0  0  0  0  0
    5.9425   -4.3996    0.0000 H   0  0  0  0  0  0  0  0  0  0  0  0
    4.7204   -6.4466    0.0000 H   0  0  0  0  0  0  0  0  0  0  0  0
    7.0423   -6.4160    0.0000 H   0  0  0  0  0  0  0  0  0  0  0  0
  1  3  1  0  0  0  0
  1  5  1  0  0  0  0
  1  8  1  0  0  0  0
  1 30  1  1  0  0  0
  2  6  1  0  0  0  0
  2  7  1  0  0  0  0
  2 10  1  0  0  0  0
  2 32  1  1  0  0  0
  3 11  1  1  0  0  0
  3 13  1  0  0  0  0
  3 27  1  6  0  0  0
  4  5  1  0  0  0  0
  4 15  1  0  0  0  0
  4  6  1  0  0  0  0
  4 45  1  1  0  0  0
  5 14  1  0  0  0  0
  5 47  1  6  0  0  0
  6  9  1  0  0  0  0
  6 46  1  6  0  0  0
  7 12  2  0  0  0  0
  7 18  1  0  0  0  0
  8  9  1  0  0  0  0
  9 31  1  1  0  0  0
 10 16  2  0  0  0  0
 11 22  1  0  0  0  0
 11 23  2  0  0  0  0
 12 17  1  0  0  0  0
 13 14  1  0  0  0  0
 15 18  1  0  0  0  0
 16 17  1  0  0  0  0
 17 26  2  0  0  0  0
 19 24  1  0  0  0  0
 19 25  2  0  0  0  0
 19 38  1  0  0  0  0
 20 29  1  0  0  0  0
 20 21  1  0  0  0  0
 20 28  2  0  0  0  0
 21 40  1  0  0  0  0
 21 41  1  0  0  0  0
 22 24  1  0  0  0  0
 28 33  1  0  0  0  0
 29 34  2  0  0  0  0
 33 35  2  0  0  0  0
 34 35  1  0  0  0  0
 35 42  1  0  0  0  0
 36 44  1  0  0  0  0
 37 43  1  0  0  0  0
 38 39  1  0  0  0  0
 39 42  1  0  0  0  0
 40 43  1  0  0  0  0
 41 44  1  0  0  0  0
M  END
>  <DSSTox_RID>
21183

>  <DSSTox_CID>
1183

>  <DSSTox_Generic_SID>
21183

>  <DSSTox_FileID>
1239_CPDBAS_v5d

>  <STRUCTURE_Formula>
C35H45Cl2NO6

>  <STRUCTURE_MolecularWeight>
646.6496

>  <STRUCTURE_ChemicalType>
defined organic

>  <STRUCTURE_TestedForm_DefinedOrganic>
parent

>  <STRUCTURE_Shown>
tested chemical

>  <TestSubstance_ChemicalName>
Prednimustine

>  <TestSubstance_CASRN>
29069-24-7

>  <TestSubstance_Description>
single chemical compound

>  <ChemicalNote>
stereochem, tautomers

>  <STRUCTURE_ChemicalName_IUPAC>
(11beta)-11,17-dihydroxy-3,20-dioxopregna-1,4-dien-21-yl 4-{4-[bis(2-chloroethyl)amino]phenyl}butanoate

>  <STRUCTURE_SMILES>
[C@]24([C@@](C(COC(=O)CCCc1ccc(cc1)N(CCCl)CCCl)=O)(CC[C@H]2[C@@H]3CCC=5[C@@]([C@H]3[C@H](C4)O)(\C=C/C(C=5)=O)C)O)C

>  <STRUCTURE_Parent_SMILES>
[C@]24([C@@](C(COC(=O)CCCc1ccc(cc1)N(CCCl)CCCl)=O)(CC[C@H]2[C@@H]3CCC=5[C@@]([C@H]3[C@H](C4)O)(\C=C/C(C=5)=O)C)O)C

>  <STRUCTURE_InChI>
InChI=1/C35H45Cl2NO6/c1-33-14-12-26(39)20-24(33)8-11-27-28-13-15-35(43,34(28,2)21-29(40)32(27)33)30(41)22-44-31(42)5-3-4-23-6-9-25(10-7-23)38(18-16-36)19-17-37/h6-7,9-10,12,14,20,27-29,32,40,43H,3-5,8,11,13,15-19,21-22H2,1-2H3/t27-,28-,29-,32+,33-,34-,35-/m0/s1

>  <STRUCTURE_InChIKey>
HFVNWDWLWUCIHC-GUPDPFMOBT

>  <StudyType>
Carcinogenicity

>  <Endpoint>
TD50; Tumor Target Sites

>  <Species>
rat

>  <TD50_Rat_mg>
19.2

>  <TD50_Rat_mmol>
0.0297

>  <ActivityScore_CPDBAS_Rat>
41

>  <TargetSites_Rat_Female>
ear Zymbals gland

>  <ActivityOutcome_CPDBAS_Rat>
active

>  <ActivityOutcome_CPDBAS_SingleCellCall>
active

>  <ChemicalPage_URL>
http://potency.berkeley.edu/chempages/PREDNIMUSTINE.html

$$$$



 29 32  0  0  1  0  0  0  0  0999 V2000
    6.9411   -2.4647    0.0000 C   0  0  2  0  0  0  0  0  0  0  0  0
    3.4969   -4.4448    0.0000 C   0  0  2  0  0  0  0  0  0  0  0  0
    8.2261   -2.0644    0.0000 C   0  0  1  0  0  0  0  0  0  0  0  0
    5.8035   -4.4553    0.0000 C   0  0  1  0  0  0  0  0  0  0  0  0
    6.9411   -3.8023    0.0000 C   0  0  2  0  0  0  0  0  0  0  0  0
    4.6555   -3.7813    0.0000 C   0  0  2  0  0  0  0  0  0  0  0  0
    3.4969   -5.7719    0.0000 C   0  0  0  0  0  0  0  0  0  0  0  0
    5.8035   -1.8116    0.0000 C   0  0  0  0  0  0  0  0  0  0  0  0
    4.6555   -2.4647    0.0000 C   0  0  2  0  0  0  0  0  0  0  0  0
    2.3277   -3.7813    0.0000 C   0  0  0  0  0  0  0  0  0  0  0  0
    2.3277   -6.4355    0.0000 C   0  0  0  0  0  0  0  0  0  0  0  0
    8.2261   -0.7162    0.0000 C   0  0  0  0  0  0  0  0  0  0  0  0
    8.9739   -3.1282    0.0000 C   0  0  0  0  0  0  0  0  0  0  0  0
    8.2261   -4.2026    0.0000 C   0  0  0  0  0  0  0  0  0  0  0  0
    5.8035   -5.7509    0.0000 C   0  0  0  0  0  0  0  0  0  0  0  0
    1.1902   -4.4553    0.0000 C   0  0  0  0  0  0  0  0  0  0  0  0
    1.1902   -5.7509    0.0000 C   0  0  0  0  0  0  0  0  0  0  0  0
    4.6555   -6.4355    0.0000 C   0  0  0  0  0  0  0  0  0  0  0  0
    7.0991    0.0000    0.0000 O   0  0  0  0  0  0  0  0  0  0  0  0
    0.0000   -6.4144    0.0000 O   0  0  0  0  0  0  0  0  0  0  0  0
    9.4795   -1.6852    0.0000 O   0  0  0  0  0  0  0  0  0  0  0  0
    6.9411   -1.1375    0.0000 C   0  0  0  0  0  0  0  0  0  0  0  0
    3.4653   -1.8011    0.0000 O   0  0  0  0  0  0  0  0  0  0  0  0
    3.4969   -3.1072    0.0000 C   0  0  0  0  0  0  0  0  0  0  0  0
    9.3952   -0.0843    0.0000 C   0  0  0  0  0  0  0  0  0  0  0  0
   10.5327   -0.8321    0.0000 O   0  0  0  0  0  0  0  0  0  0  0  0
    5.8035   -3.1282    0.0000 H   0  0  0  0  0  0  0  0  0  0  0  0
    4.6555   -5.1189    0.0000 H   0  0  0  0  0  0  0  0  0  0  0  0
    6.9411   -5.1294    0.0000 H   0  0  0  0  0  0  0  0  0  0  0  0
  1  3  1  0  0  0  0
  1  5  1  0  0  0  0
  1  8  1  0  0  0  0
  1 22  1  1  0  0  0
  2  6  1  0  0  0  0
  2  7  1  0  0  0  0
  2 10  1  0  0  0  0
  2 24  1  1  0  0  0
  3 12  1  1  0  0  0
  3 13  1  0  0  0  0
  3 21  1  6  0  0  0
  4  5  1  0  0  0  0
  4 15  1  0  0  0  0
  4  6  1  0  0  0  0
  4 27  1  1  0  0  0
  5 14  1  0  0  0  0
  5 29  1  6  0  0  0
  6  9  1  0  0  0  0
  6 28  1  6  0  0  0
  7 11  2  0  0  0  0
  7 18  1  0  0  0  0
  8  9  1  0  0  0  0
  9 23  1  1  0  0  0
 10 16  2  0  0  0  0
 11 17  1  0  0  0  0
 12 19  2  0  0  0  0
 12 25  1  0  0  0  0
 13 14  1  0  0  0  0
 15 18  1  0  0  0  0
 16 17  1  0  0  0  0
 17 20  2  0  0  0  0
 25 26  1  0  0  0  0
M  END
>  <DSSTox_RID>
21184

>  <DSSTox_CID>
1184

>  <DSSTox_Generic_SID>
21184

>  <DSSTox_FileID>
1240_CPDBAS_v5d

>  <STRUCTURE_Formula>
C21H28O5

>  <STRUCTURE_MolecularWeight>
360.444

>  <STRUCTURE_ChemicalType>
defined organic

>  <STRUCTURE_TestedForm_DefinedOrganic>
parent

>  <STRUCTURE_Shown>
tested chemical

>  <TestSubstance_ChemicalName>
Prednisolone

>  <TestSubstance_CASRN>
50-24-8

>  <TestSubstance_Description>
single chemical compound

>  <ChemicalNote>
stereochem, tautomers

>  <STRUCTURE_ChemicalName_IUPAC>
(11beta)-11,17,21-trihydroxypregna-1,4-diene-3,20-dione

>  <STRUCTURE_SMILES>
[C@]13([C@@](C(=O)CO)(CC[C@H]1[C@@H]2CCC=4[C@@]([C@H]2[C@H](C3)O)(\C=C/C(C=4)=O)C)O)C

>  <STRUCTURE_Parent_SMILES>
[C@]13([C@@](C(=O)CO)(CC[C@H]1[C@@H]2CCC=4[C@@]([C@H]2[C@H](C3)O)(\C=C/C(C=4)=O)C)O)C

>  <STRUCTURE_InChI>
InChI=1/C21H28O5/c1-19-7-5-13(23)9-12(19)3-4-14-15-6-8-21(26,17(25)11-22)20(15,2)10-16(24)18(14)19/h5,7,9,14-16,18,22,24,26H,3-4,6,8,10-11H2,1-2H3/t14-,15-,16-,18+,19-,20-,21-/m0/s1

>  <STRUCTURE_InChIKey>
OIGNJSKKLXVSLS-VWUMJDOOBF

>  <StudyType>
Carcinogenicity

>  <Endpoint>
TD50; Tumor Target Sites

>  <Species>
rat

>  <ActivityOutcome_CPDBAS_Mutagenicity>
inactive

>  <TD50_Rat_mg>
1.53

>  <TD50_Rat_mmol>
0.00424

>  <ActivityScore_CPDBAS_Rat>
50

>  <TargetSites_Rat_Male>
liver

>  <TargetSites_Rat_Female>
no positive results

>  <ActivityOutcome_CPDBAS_Rat>
active

>  <ActivityOutcome_CPDBAS_SingleCellCall>
active

>  <ChemicalPage_URL>
http://potency.berkeley.edu/chempages/PREDNISOLONE.html

$$$$



 29 32  0  0  1  0  0  0  0  0999 V2000
    6.9582   -2.4248    0.0000 C   0  0  2  0  0  0  0  0  0  0  0  0
    3.4897   -4.4174    0.0000 C   0  0  2  0  0  0  0  0  0  0  0  0
    8.2339   -2.0137    0.0000 C   0  0  1  0  0  0  0  0  0  0  0  0
    4.6494   -3.7532    0.0000 C   0  0  2  0  0  0  0  0  0  0  0  0
    5.7985   -4.4280    0.0000 C   0  0  2  0  0  0  0  0  0  0  0  0
    6.9582   -3.7532    0.0000 C   0  0  2  0  0  0  0  0  0  0  0  0
    4.6494   -2.4248    0.0000 C   0  0  0  0  0  0  0  0  0  0  0  0
    3.4897   -5.7458    0.0000 C   0  0  0  0  0  0  0  0  0  0  0  0
    5.7985   -1.7712    0.0000 C   0  0  0  0  0  0  0  0  0  0  0  0
    2.3616   -3.7532    0.0000 C   0  0  0  0  0  0  0  0  0  0  0  0
    2.3616   -6.4206    0.0000 C   0  0  0  0  0  0  0  0  0  0  0  0
    8.2339   -0.6853    0.0000 C   0  0  0  0  0  0  0  0  0  0  0  0
    8.9825   -3.0785    0.0000 C   0  0  0  0  0  0  0  0  0  0  0  0
    8.2339   -4.1644    0.0000 C   0  0  0  0  0  0  0  0  0  0  0  0
    5.7985   -5.7458    0.0000 C   0  0  0  0  0  0  0  0  0  0  0  0
    1.2019   -4.4280    0.0000 C   0  0  0  0  0  0  0  0  0  0  0  0
    1.2019   -5.7458    0.0000 C   0  0  0  0  0  0  0  0  0  0  0  0
    4.6494   -6.4206    0.0000 C   0  0  0  0  0  0  0  0  0  0  0  0
    3.4686   -1.7501    0.0000 O   0  0  0  0  0  0  0  0  0  0  0  0
    7.0953    0.0000    0.0000 O   0  0  0  0  0  0  0  0  0  0  0  0
    0.0000   -6.3784    0.0000 O   0  0  0  0  0  0  0  0  0  0  0  0
    9.4780   -1.6552    0.0000 O   0  0  0  0  0  0  0  0  0  0  0  0
    6.9582   -1.1070    0.0000 C   0  0  0  0  0  0  0  0  0  0  0  0
    3.4897   -3.0785    0.0000 C   0  0  0  0  0  0  0  0  0  0  0  0
    9.3936   -0.0422    0.0000 C   0  0  0  0  0  0  0  0  0  0  0  0
   10.5428   -0.7591    0.0000 O   0  0  0  0  0  0  0  0  0  0  0  0
    5.7985   -3.0996    0.0000 H   0  0  0  0  0  0  0  0  0  0  0  0
    4.6494   -5.0711    0.0000 H   0  0  0  0  0  0  0  0  0  0  0  0
    6.9582   -5.0922    0.0000 H   0  0  0  0  0  0  0  0  0  0  0  0
  1  3  1  0  0  0  0
  1  6  1  0  0  0  0
  1  9  1  0  0  0  0
  1 23  1  1  0  0  0
  2  4  1  0  0  0  0
  2  8  1  0  0  0  0
  2 10  1  0  0  0  0
  2 24  1  1  0  0  0
  3 12  1  1  0  0  0
  3 13  1  0  0  0  0
  3 22  1  6  0  0  0
  4  7  1  0  0  0  0
  4  5  1  0  0  0  0
  4 28  1  6  0  0  0
  5  6  1  0  0  0  0
  5 15  1  0  0  0  0
  5 27  1  1  0  0  0
  6 14  1  0  0  0  0
  6 29  1  6  0  0  0
  7  9  1  0  0  0  0
  7 19  2  0  0  0  0
  8 11  2  0  0  0  0
  8 18  1  0  0  0  0
 10 16  2  0  0  0  0
 11 17  1  0  0  0  0
 12 20  2  0  0  0  0
 12 25  1  0  0  0  0
 13 14  1  0  0  0  0
 15 18  1  0  0  0  0
 16 17  1  0  0  0  0
 17 21  2  0  0  0  0
 25 26  1  0  0  0  0
M  END
>  <DSSTox_RID>
21185

>  <DSSTox_CID>
1185

>  <DSSTox_Generic_SID>
21185

>  <DSSTox_FileID>
1241_CPDBAS_v5d

>  <STRUCTURE_Formula>
C21H26O5

>  <STRUCTURE_MolecularWeight>
358.4281

>  <STRUCTURE_ChemicalType>
defined organic

>  <STRUCTURE_TestedForm_DefinedOrganic>
parent

>  <STRUCTURE_Shown>
tested chemical

>  <TestSubstance_ChemicalName>
Prednisone

>  <TestSubstance_CASRN>
53-03-2

>  <TestSubstance_Description>
single chemical compound

>  <ChemicalNote>
stereochem, tautomers

>  <STRUCTURE_ChemicalName_IUPAC>
17,21-dihydroxypregna-1,4-diene-3,11,20-trione

>  <STRUCTURE_SMILES>
OCC(=O)[C@@]3(O)CC[C@H]2[C@@H]4CC\C1=C\C(=O)/C=C\[C@]1(C)[C@H]4C(=O)C[C@@]23C

>  <STRUCTURE_Parent_SMILES>
OCC(=O)[C@@]3(O)CC[C@H]2[C@@H]4CC\C1=C\C(=O)/C=C\[C@]1(C)[C@H]4C(=O)C[C@@]23C

>  <STRUCTURE_InChI>
InChI=1/C21H26O5/c1-19-7-5-13(23)9-12(19)3-4-14-15-6-8-21(26,17(25)11-22)20(15,2)10-16(24)18(14)19/h5,7,9,14-15,18,22,26H,3-4,6,8,10-11H2,1-2H3/t14-,15-,18+,19-,20-,21-/m0/s1

>  <STRUCTURE_InChIKey>
XOFYZVNMUHMLCC-ZPOLXVRWBN

>  <StudyType>
Carcinogenicity

>  <Endpoint>
TD50; Tumor Target Sites

>  <Species>
mouse

>  <ActivityOutcome_CPDBAS_Mutagenicity>
active

>  <ActivityScore_CPDBAS_Mouse>
0

>  <TD50_Mouse_Note>
no positive results

>  <TargetSites_Mouse_Male>
no positive results

>  <TargetSites_Mouse_Female>
no positive results

>  <ActivityOutcome_CPDBAS_Mouse>
inactive

>  <ActivityOutcome_CPDBAS_SingleCellCall>
inactive

>  <ActivityOutcome_CPDBAS_MultiCellCall>
inactive

>  <ActivityOutcome_CPDBAS_MultiCellCall_Details>
multisex inactive

>  <ChemicalPage_URL>
http://potency.berkeley.edu/chempages/PREDNISONE.html

$$$$



 16 17  0  0  0  0  0  0  0  0999 V2000
    2.3032   -0.6663    0.0000 C   0  0  0  0  0  0  0  0  0  0  0  0
    3.4577    0.0000    0.0000 O   0  0  0  0  0  0  0  0  0  0  0  0
    2.3032   -1.9931    0.0000 C   0  0  0  0  0  0  0  0  0  0  0  0
    2.7570   -3.2452    0.0000 C   0  0  0  0  0  0  0  0  0  0  0  0
    4.0665   -3.4749    0.0000 C   0  0  0  0  0  0  0  0  0  0  0  0
    4.5203   -4.7271    0.0000 C   0  0  0  0  0  0  0  0  0  0  0  0
    3.6702   -5.7437    0.0000 C   0  0  0  0  0  0  0  0  0  0  0  0
    2.3607   -5.5140    0.0000 C   0  0  0  0  0  0  0  0  0  0  0  0
    1.9012   -4.2618    0.0000 C   0  0  0  0  0  0  0  0  0  0  0  0
    3.6128   -1.7633    0.0000 C   0  0  0  0  0  0  0  0  0  0  0  0
    4.4686   -2.7800    0.0000 C   0  0  0  0  0  0  0  0  0  0  0  0
    1.1545   -2.6593    0.0000 C   0  0  0  0  0  0  0  0  0  0  0  0
    1.1545   -3.9919    0.0000 O   0  0  0  0  0  0  0  0  0  0  0  0
    0.0000   -1.9931    0.0000 N   0  0  0  0  0  0  0  0  0  0  0  0
    0.0000   -0.6663    0.0000 C   0  0  0  0  0  0  0  0  0  0  0  0
    1.1545    0.0000    0.0000 N   0  0  0  0  0  0  0  0  0  0  0  0
  1  2  2  0  0  0  0
  1  3  1  0  0  0  0
  1 16  1  0  0  0  0
  3  4  1  0  0  0  0
  3 10  1  0  0  0  0
  3 12  1  0  0  0  0
  4  5  2  0  0  0  0
  4  9  1  0  0  0  0
  5  6  1  0  0  0  0
  6  7  2  0  0  0  0
  7  8  1  0  0  0  0
  8  9  2  0  0  0  0
 10 11  1  0  0  0  0
 12 13  2  0  0  0  0
 12 14  1  0  0  0  0
 14 15  1  0  0  0  0
 15 16  1  0  0  0  0
M  END
>  <DSSTox_RID>
40822

>  <DSSTox_CID>
3510

>  <DSSTox_Generic_SID>
23510

>  <DSSTox_FileID>
1244_CPDBAS_v5d

>  <STRUCTURE_Formula>
C12H14N2O2

>  <STRUCTURE_MolecularWeight>
218.2518

>  <STRUCTURE_ChemicalType>
defined organic

>  <STRUCTURE_TestedForm_DefinedOrganic>
parent

>  <STRUCTURE_Shown>
tested chemical

>  <TestSubstance_ChemicalName>
Primidone

>  <TestSubstance_CASRN>
125-33-7

>  <TestSubstance_Description>
single chemical compound

>  <STRUCTURE_ChemicalName_IUPAC>
5-ethyl-5-phenyldihydropyrimidine-4,6(1H,5H)-dione

>  <STRUCTURE_SMILES>
C2(=O)C(C1=CC=CC=C1)(CC)C(=O)NCN2

>  <STRUCTURE_Parent_SMILES>
C2(=O)C(C1=CC=CC=C1)(CC)C(=O)NCN2

>  <STRUCTURE_InChI>
InChI=1/C12H14N2O2/c1-2-12(9-6-4-3-5-7-9)10(15)13-8-14-11(12)16/h3-7H,2,8H2,1H3,(H,13,15)(H,14,16)/f/h13-14H

>  <STRUCTURE_InChIKey>
DQMZLTXERSFNPB-KGCNKATMCR

>  <StudyType>
Carcinogenicity

>  <Endpoint>
TD50; Tumor Target Sites

>  <Species>
rat; mouse

>  <ActivityOutcome_CPDBAS_Mutagenicity>
active

>  <ActivityScore_CPDBAS_Rat>
0

>  <TD50_Rat_Note>
no positive results

>  <TargetSites_Rat_Male>
no positive results

>  <TargetSites_Rat_Female>
no positive results

>  <ActivityOutcome_CPDBAS_Rat>
inactive

>  <TD50_Mouse_mg>
26.1

>  <TD50_Mouse_mmol>
0.12

>  <ActivityScore_CPDBAS_Mouse>
39

>  <TD50_Mouse_Note>
TD50 is harmonic mean of more than one positive test

>  <TargetSites_Mouse_Male>
liver; thyroid gland

>  <TargetSites_Mouse_Female>
liver

>  <ActivityOutcome_CPDBAS_Mouse>
active

>  <ActivityOutcome_CPDBAS_SingleCellCall>
active

>  <ActivityOutcome_CPDBAS_MultiCellCall>
active

>  <ActivityOutcome_CPDBAS_MultiCellCall_Details>
multisite active; multisex active

>  <Note_CPDBAS>
Rat added v5a; Mouse added v5a; Mutagenicity_SAL_CPDB added v5a; chemical added v5a

>  <ChemicalPage_URL>
http://potency.berkeley.edu/chempages/PRIMIDONE.html

$$$$



 19 19  0  0  0  0  0  0  0  0999 V2000
    3.6323   -3.9915    0.0000 O   0  0  0  0  0  0  0  0  0  0  0  0
    2.3051   -3.9915    0.0000 S   0  0  0  0  0  0  0  0  0  0  0  0
    0.9779   -3.9915    0.0000 O   0  0  0  0  0  0  0  0  0  0  0  0
    2.3051   -5.3187    0.0000 C   0  0  0  0  0  0  0  0  0  0  0  0
    1.1476   -5.9873    0.0000 C   0  0  0  0  0  0  0  0  0  0  0  0
    1.1476   -7.3145    0.0000 C   0  0  0  0  0  0  0  0  0  0  0  0
    2.3051   -7.9831    0.0000 C   0  0  0  0  0  0  0  0  0  0  0  0
    3.4527   -7.3145    0.0000 C   0  0  0  0  0  0  0  0  0  0  0  0
    3.4527   -5.9873    0.0000 C   0  0  0  0  0  0  0  0  0  0  0  0
    2.3051   -9.3103    0.0000 C   0  0  0  0  0  0  0  0  0  0  0  0
    3.4527   -9.9788    0.0000 O   0  0  0  0  0  0  0  0  0  0  0  0
    1.1476   -9.9788    0.0000 O   0  0  0  0  0  0  0  0  0  0  0  0
    2.3051   -2.6644    0.0000 N   0  0  0  0  0  0  0  0  0  0  0  0
    1.1476   -1.9958    0.0000 C   0  0  0  0  0  0  0  0  0  0  0  0
    1.1476   -0.6686    0.0000 C   0  0  0  0  0  0  0  0  0  0  0  0
    0.0000    0.0000    0.0000 C   0  0  0  0  0  0  0  0  0  0  0  0
    3.4527   -1.9958    0.0000 C   0  0  0  0  0  0  0  0  0  0  0  0
    4.6102   -2.6644    0.0000 C   0  0  0  0  0  0  0  0  0  0  0  0
    5.7578   -1.9958    0.0000 C   0  0  0  0  0  0  0  0  0  0  0  0
  1  2  2  0  0  0  0
  2  3  2  0  0  0  0
  2  4  1  0  0  0  0
  2 13  1  0  0  0  0
  4  5  2  0  0  0  0
  4  9  1  0  0  0  0
  5  6  1  0  0  0  0
  6  7  2  0  0  0  0
  7  8  1  0  0  0  0
  7 10  1  0  0  0  0
  8  9  2  0  0  0  0
 10 11  2  0  0  0  0
 10 12  1  0  0  0  0
 13 14  1  0  0  0  0
 13 17  1  0  0  0  0
 14 15  1  0  0  0  0
 15 16  1  0  0  0  0
 17 18  1  0  0  0  0
 18 19  1  0  0  0  0
M  END
>  <DSSTox_RID>
21188

>  <DSSTox_CID>
1188

>  <DSSTox_Generic_SID>
21188

>  <DSSTox_FileID>
1245_CPDBAS_v5d

>  <STRUCTURE_Formula>
C13H19NO4S

>  <STRUCTURE_MolecularWeight>
285.3593

>  <STRUCTURE_ChemicalType>
defined organic

>  <STRUCTURE_TestedForm_DefinedOrganic>
parent

>  <STRUCTURE_Shown>
tested chemical

>  <TestSubstance_ChemicalName>
Probenecid

>  <TestSubstance_CASRN>
57-66-9

>  <TestSubstance_Description>
single chemical compound

>  <STRUCTURE_ChemicalName_IUPAC>
4-[(dipropylamino)sulfonyl]benzoic acid

>  <STRUCTURE_SMILES>
O=S(=O)(C1=CC=C(C=C1)C(=O)O)N(CCC)CCC

>  <STRUCTURE_Parent_SMILES>
O=S(=O)(C1=CC=C(C=C1)C(=O)O)N(CCC)CCC

>  <STRUCTURE_InChI>
InChI=1/C13H19NO4S/c1-3-9-14(10-4-2)19(17,18)12-7-5-11(6-8-12)13(15)16/h5-8H,3-4,9-10H2,1-2H3,(H,15,16)/f/h15H

>  <STRUCTURE_InChIKey>
DBABZHXKTCFAPX-YAQRNVERCP

>  <StudyType>
Carcinogenicity

>  <Endpoint>
TD50; Tumor Target Sites

>  <Species>
rat; mouse

>  <ActivityOutcome_CPDBAS_Mutagenicity>
inactive

>  <ActivityScore_CPDBAS_Rat>
0

>  <TD50_Rat_Note>
no positive results

>  <TargetSites_Rat_Male>
no positive results

>  <TargetSites_Rat_Female>
no positive results

>  <ActivityOutcome_CPDBAS_Rat>
inactive

>  <TD50_Mouse_mg>
540

>  <TD50_Mouse_mmol>
1.89

>  <ActivityScore_CPDBAS_Mouse>
25

>  <TargetSites_Mouse_Male>
no positive results

>  <TargetSites_Mouse_Female>
liver

>  <ActivityOutcome_CPDBAS_Mouse>
active

>  <ActivityOutcome_CPDBAS_SingleCellCall>
active

>  <NTP_TechnicalReport>
TR 395

>  <ChemicalPage_URL>
http://potency.berkeley.edu/chempages/PROBENECID.html

$$$$



 16 16  0  0  0  0  0  0  0  0999 V2000
    0.0000   -2.6624    0.0000 C   0  0  0  0  0  0  0  0  0  0  0  0
    1.1499   -1.9994    0.0000 N   0  0  0  0  0  0  0  0  0  0  0  0
    1.1499   -0.6630    0.0000 N   0  0  0  0  0  0  0  0  0  0  0  0
    2.2998    0.0000    0.0000 C   0  0  0  0  0  0  0  0  0  0  0  0
    3.4497   -0.6630    0.0000 C   0  0  0  0  0  0  0  0  0  0  0  0
    4.5996    0.0000    0.0000 C   0  0  0  0  0  0  0  0  0  0  0  0
    5.7599   -0.6630    0.0000 C   0  0  0  0  0  0  0  0  0  0  0  0
    5.7599   -1.9994    0.0000 C   0  0  0  0  0  0  0  0  0  0  0  0
    4.5996   -2.6624    0.0000 C   0  0  0  0  0  0  0  0  0  0  0  0
    3.4497   -1.9994    0.0000 C   0  0  0  0  0  0  0  0  0  0  0  0
    6.9098   -2.6624    0.0000 C   0  0  0  0  0  0  0  0  0  0  0  0
    6.9098   -3.9884    0.0000 O   0  0  0  0  0  0  0  0  0  0  0  0
    8.0597   -1.9994    0.0000 N   0  0  0  0  0  0  0  0  0  0  0  0
    9.2096   -2.6624    0.0000 C   0  0  0  0  0  0  0  0  0  0  0  0
   10.3595   -1.9994    0.0000 C   0  0  0  0  0  0  0  0  0  0  0  0
    9.2096   -3.9884    0.0000 C   0  0  0  0  0  0  0  0  0  0  0  0
  1  2  1  0  0  0  0
  2  3  1  0  0  0  0
  3  4  1  0  0  0  0
  4  5  1  0  0  0  0
  5  6  2  0  0  0  0
  5 10  1  0  0  0  0
  6  7  1  0  0  0  0
  7  8  2  0  0  0  0
  8  9  1  0  0  0  0
  8 11  1  0  0  0  0
  9 10  2  0  0  0  0
 11 12  2  0  0  0  0
 11 13  1  0  0  0  0
 13 14  1  0  0  0  0
 14 15  1  0  0  0  0
 14 16  1  0  0  0  0
M  END
>  <DSSTox_RID>
21189

>  <DSSTox_CID>
1189

>  <DSSTox_Generic_SID>
21189

>  <DSSTox_FileID>
1246_CPDBAS_v5d

>  <STRUCTURE_Formula>
C12H19N3O

>  <STRUCTURE_MolecularWeight>
221.3016

>  <STRUCTURE_ChemicalType>
defined organic

>  <STRUCTURE_TestedForm_DefinedOrganic>
parent

>  <STRUCTURE_Shown>
tested chemical

>  <TestSubstance_ChemicalName>
Procarbazine

>  <TestSubstance_CASRN>
671-16-9

>  <TestSubstance_Description>
single chemical compound

>  <STRUCTURE_ChemicalName_IUPAC>
N-(1-methylethyl)-4-[(2-methylhydrazino)methyl]benzamide

>  <STRUCTURE_SMILES>
CNNCC1=CC=C(C=C1)C(=O)NC(C)C

>  <STRUCTURE_Parent_SMILES>
CNNCC1=CC=C(C=C1)C(=O)NC(C)C

>  <STRUCTURE_InChI>
InChI=1/C12H19N3O/c1-9(2)15-12(16)11-6-4-10(5-7-11)8-14-13-3/h4-7,9,13-14H,8H2,1-3H3,(H,15,16)/f/h15H

>  <STRUCTURE_InChIKey>
CPTBDICYNRMXFX-YAQRNVERCI

>  <StudyType>
Carcinogenicity

>  <Endpoint>
TD50; Tumor Target Sites

>  <Species>
rat

>  <ActivityOutcome_CPDBAS_Mutagenicity>
inactive

>  <TD50_Rat_mg>
4.01

>  <TD50_Rat_mmol>
0.0181

>  <ActivityScore_CPDBAS_Rat>
44

>  <TD50_Rat_Note>
positive test results only by intraperitoneal or intravenous injection

>  <TargetSites_Rat_Male>
all tumor bearing animals

>  <ActivityOutcome_CPDBAS_Rat>
active

>  <ActivityOutcome_CPDBAS_SingleCellCall>
active

>  <ChemicalPage_URL>
http://potency.berkeley.edu/chempages/PROCARBAZINE.html

$$$$



 17 18  0  0  0  0  0  0  0  0999 V2000
    0.6685   -1.1574    0.0000 C   0  0  0  0  0  0  0  0  0  0  0  0
    0.0000   -2.3048    0.0000 C   0  0  0  0  0  0  0  0  0  0  0  0
    0.6685   -3.4623    0.0000 C   0  0  0  0  0  0  0  0  0  0  0  0
    1.9955   -3.4623    0.0000 C   0  0  0  0  0  0  0  0  0  0  0  0
    2.6640   -2.3048    0.0000 C   0  0  0  0  0  0  0  0  0  0  0  0
    1.9955   -1.1574    0.0000 C   0  0  0  0  0  0  0  0  0  0  0  0
    3.9911   -2.3048    0.0000 C   0  0  0  0  0  0  0  0  0  0  0  0
    4.6596   -3.4623    0.0000 C   0  0  0  0  0  0  0  0  0  0  0  0
    3.9911   -4.6097    0.0000 C   0  0  0  0  0  0  0  0  0  0  0  0
    2.6640   -4.6097    0.0000 C   0  0  0  0  0  0  0  0  0  0  0  0
    5.9866   -3.4623    0.0000 C   0  0  3  0  0  0  0  0  0  0  0  0
    6.6551   -2.3048    0.0000 C   0  0  0  0  0  0  0  0  0  0  0  0
    7.9821   -2.3048    0.0000 N   0  0  0  0  0  0  0  0  0  0  0  0
    8.6506   -1.1574    0.0000 C   0  0  0  0  0  0  0  0  0  0  0  0
    7.9821    0.0000    0.0000 C   0  0  0  0  0  0  0  0  0  0  0  0
    9.9777   -1.1574    0.0000 C   0  0  0  0  0  0  0  0  0  0  0  0
    6.6551   -4.6097    0.0000 O   0  0  0  0  0  0  0  0  0  0  0  0
  1  2  2  0  0  0  0
  1  6  1  0  0  0  0
  2  3  1  0  0  0  0
  3  4  2  0  0  0  0
  4  5  1  0  0  0  0
  4 10  1  0  0  0  0
  5  6  2  0  0  0  0
  5  7  1  0  0  0  0
  7  8  2  0  0  0  0
  8  9  1  0  0  0  0
  8 11  1  0  0  0  0
  9 10  2  0  0  0  0
 11 12  1  0  0  0  0
 11 17  1  0  0  0  0
 12 13  1  0  0  0  0
 13 14  1  0  0  0  0
 14 15  1  0  0  0  0
 14 16  1  0  0  0  0
M  END
>  <DSSTox_RID>
21193

>  <DSSTox_CID>
1193

>  <DSSTox_Generic_SID>
21193

>  <DSSTox_FileID>
1250_CPDBAS_v5d

>  <STRUCTURE_Formula>
C15H19NO

>  <STRUCTURE_MolecularWeight>
229.3212

>  <STRUCTURE_ChemicalType>
defined organic

>  <STRUCTURE_TestedForm_DefinedOrganic>
parent

>  <STRUCTURE_Shown>
tested chemical

>  <TestSubstance_ChemicalName>
Pronethalol

>  <TestSubstance_CASRN>
54-80-8

>  <TestSubstance_Description>
single chemical compound

>  <STRUCTURE_ChemicalName_IUPAC>
2-[(1-methylethyl)amino]-1-naphthalen-2-ylethanol

>  <STRUCTURE_SMILES>
C1=CC=C2C(=C1)C=C(C=C2)C(CNC(C)C)O

>  <STRUCTURE_Parent_SMILES>
C1=CC=C2C(=C1)C=C(C=C2)C(CNC(C)C)O

>  <STRUCTURE_InChI>
InChI=1/C15H19NO/c1-11(2)16-10-15(17)14-8-7-12-5-3-4-6-13(12)9-14/h3-9,11,15-17H,10H2,1-2H3

>  <STRUCTURE_InChIKey>
HRSANNODOVBCST-UHFFFAOYAF

>  <StudyType>
Carcinogenicity

>  <Endpoint>
TD50; Tumor Target Sites

>  <Species>
mouse

>  <ActivityOutcome_CPDBAS_Mutagenicity>
inactive

>  <ActivityScore_CPDBAS_Mouse>
0

>  <TD50_Mouse_Note>
no positive results

>  <TargetSites_Mouse_Male>
no positive results

>  <TargetSites_Mouse_Female>
no positive results

>  <ActivityOutcome_CPDBAS_Mouse>
inactive

>  <ActivityOutcome_CPDBAS_SingleCellCall>
inactive

>  <ActivityOutcome_CPDBAS_MultiCellCall>
inactive

>  <ActivityOutcome_CPDBAS_MultiCellCall_Details>
multisex inactive

>  <ChemicalPage_URL>
http://potency.berkeley.edu/chempages/PRONETHALOL.html

$$$$



  7  7  0  0  0  0  0  0  0  0999 V2000
    1.1893   -3.1857    0.0000 O   0  0  0  0  0  0  0  0  0  0  0  0
    1.3310   -1.8647    0.0000 S   0  0  0  0  0  0  0  0  0  0  0  0
    0.0000   -1.8647    0.0000 O   0  0  0  0  0  0  0  0  0  0  0  0
    1.1893   -0.5403    0.0000 C   0  0  0  0  0  0  0  0  0  0  0  0
    2.4049    0.0000    0.0000 C   0  0  0  0  0  0  0  0  0  0  0  0
    3.2944   -0.9883    0.0000 C   0  0  0  0  0  0  0  0  0  0  0  0
    2.6290   -2.1414    0.0000 O   0  0  0  0  0  0  0  0  0  0  0  0
  1  2  2  0  0  0  0
  2  3  2  0  0  0  0
  2  4  1  0  0  0  0
  2  7  1  0  0  0  0
  4  5  1  0  0  0  0
  5  6  1  0  0  0  0
  6  7  1  0  0  0  0
M  END
>  <DSSTox_RID>
21195

>  <DSSTox_CID>
1195

>  <DSSTox_Generic_SID>
21195

>  <DSSTox_FileID>
1252_CPDBAS_v5d

>  <STRUCTURE_Formula>
C3H6O3S

>  <STRUCTURE_MolecularWeight>
122.1386

>  <STRUCTURE_ChemicalType>
defined organic

>  <STRUCTURE_TestedForm_DefinedOrganic>
parent

>  <STRUCTURE_Shown>
tested chemical

>  <TestSubstance_ChemicalName>
Propane sultone

>  <TestSubstance_CASRN>
1120-71-4

>  <TestSubstance_Description>
single chemical compound

>  <STRUCTURE_ChemicalName_IUPAC>
1,2-oxathiolane 2,2-dioxide

>  <STRUCTURE_SMILES>
O=S1(=O)CCCO1

>  <STRUCTURE_Parent_SMILES>
O=S1(=O)CCCO1

>  <STRUCTURE_InChI>
InChI=1/C3H6O3S/c4-7(5)3-1-2-6-7/h1-3H2

>  <STRUCTURE_InChIKey>
FSSPGSAQUIYDCN-UHFFFAOYAH

>  <StudyType>
Carcinogenicity

>  <Endpoint>
TD50; Tumor Target Sites

>  <Species>
rat

>  <ActivityOutcome_CPDBAS_Mutagenicity>
active

>  <TD50_Rat_mg>
3.84

>  <TD50_Rat_mmol>
0.0314

>  <ActivityScore_CPDBAS_Rat>
41

>  <TD50_Rat_Note>
TD50 is harmonic mean of more than one positive test

>  <TargetSites_Rat_Male>
hematopoietic system; nervous system; small intestine

>  <TargetSites_Rat_Female>
hematopoietic system; mammary gland; nervous system; small intestine

>  <ActivityOutcome_CPDBAS_Rat>
active

>  <ActivityOutcome_CPDBAS_SingleCellCall>
active

>  <ActivityOutcome_CPDBAS_MultiCellCall>
active

>  <ActivityOutcome_CPDBAS_MultiCellCall_Details>
multisite active; multisex active

>  <ChemicalPage_URL>
http://potency.berkeley.edu/chempages/PROPANE%20SULTONE.html

$$$$



 15 15  0  0  0  0  0  0  0  0999 V2000
    1.9946    0.0000    0.0000 Cl  0  0  0  0  0  0  0  0  0  0  0  0
    2.6568   -1.1568    0.0000 C   0  0  0  0  0  0  0  0  0  0  0  0
    3.9891   -1.1568    0.0000 N   0  0  0  0  0  0  0  0  0  0  0  0
    4.6513   -2.3057    0.0000 C   0  0  0  0  0  0  0  0  0  0  0  0
    3.9891   -3.4546    0.0000 N   0  0  0  0  0  0  0  0  0  0  0  0
    2.6568   -3.4546    0.0000 C   0  0  0  0  0  0  0  0  0  0  0  0
    1.9946   -2.3057    0.0000 N   0  0  0  0  0  0  0  0  0  0  0  0
    1.9946   -4.6114    0.0000 N   0  0  0  0  0  0  0  0  0  0  0  0
    0.6622   -4.6114    0.0000 C   0  0  0  0  0  0  0  0  0  0  0  0
    0.0000   -5.7603    0.0000 C   0  0  0  0  0  0  0  0  0  0  0  0
    0.0000   -3.4546    0.0000 C   0  0  0  0  0  0  0  0  0  0  0  0
    5.9837   -2.3057    0.0000 N   0  0  0  0  0  0  0  0  0  0  0  0
    6.6459   -3.4546    0.0000 C   0  0  0  0  0  0  0  0  0  0  0  0
    7.9783   -3.4546    0.0000 C   0  0  0  0  0  0  0  0  0  0  0  0
    5.9837   -4.6114    0.0000 C   0  0  0  0  0  0  0  0  0  0  0  0
  1  2  1  0  0  0  0
  2  3  2  0  0  0  0
  2  7  1  0  0  0  0
  3  4  1  0  0  0  0
  4  5  2  0  0  0  0
  4 12  1  0  0  0  0
  5  6  1  0  0  0  0
  6  7  2  0  0  0  0
  6  8  1  0  0  0  0
  8  9  1  0  0  0  0
  9 10  1  0  0  0  0
  9 11  1  0  0  0  0
 12 13  1  0  0  0  0
 13 14  1  0  0  0  0
 13 15  1  0  0  0  0
M  END
>  <DSSTox_RID>
21196

>  <DSSTox_CID>
1196

>  <DSSTox_Generic_SID>
21196

>  <DSSTox_FileID>
1253_CPDBAS_v5d

>  <STRUCTURE_Formula>
C9H16ClN5

>  <STRUCTURE_MolecularWeight>
229.7098

>  <STRUCTURE_ChemicalType>
defined organic

>  <STRUCTURE_TestedForm_DefinedOrganic>
parent

>  <STRUCTURE_Shown>
tested chemical

>  <TestSubstance_ChemicalName>
Propazine

>  <TestSubstance_CASRN>
139-40-2

>  <TestSubstance_Description>
single chemical compound

>  <STRUCTURE_ChemicalName_IUPAC>
6-chloro-N,N'-diisopropyl-1,3,5-triazine-2,4-diamine

>  <STRUCTURE_SMILES>
ClC1=NC(=NC(=N1)NC(C)C)NC(C)C

>  <STRUCTURE_Parent_SMILES>
ClC1=NC(=NC(=N1)NC(C)C)NC(C)C

>  <STRUCTURE_InChI>
InChI=1/C9H16ClN5/c1-5(2)11-8-13-7(10)14-9(15-8)12-6(3)4/h5-6H,1-4H3,(H2,11,12,13,14,15)/f/h11-12H

>  <STRUCTURE_InChIKey>
WJNRPILHGGKWCK-WYCIUFAECA

>  <StudyType>
Carcinogenicity

>  <Endpoint>
TD50; Tumor Target Sites

>  <Species>
mouse

>  <ActivityScore_CPDBAS_Mouse>
0

>  <TD50_Mouse_Note>
no positive results

>  <TargetSites_Mouse_Male>
no positive results

>  <TargetSites_Mouse_Female>
no positive results

>  <ActivityOutcome_CPDBAS_Mouse>
inactive

>  <ActivityOutcome_CPDBAS_SingleCellCall>
inactive

>  <ActivityOutcome_CPDBAS_MultiCellCall>
inactive

>  <ActivityOutcome_CPDBAS_MultiCellCall_Details>
multisex inactive

>  <ChemicalPage_URL>
http://potency.berkeley.edu/chempages/PROPAZINE.html

$$$$



  5  5  0  0  0  0  0  0  0  0999 V2000
    0.0000   -0.9406    0.0000 O   0  0  0  0  0  0  0  0  0  0  0  0
    1.3291   -0.9406    0.0000 C   0  0  0  0  0  0  0  0  0  0  0  0
    2.2697    0.0000    0.0000 C   0  0  0  0  0  0  0  0  0  0  0  0
    3.2103   -0.9406    0.0000 C   0  0  0  0  0  0  0  0  0  0  0  0
    2.2697   -1.8812    0.0000 O   0  0  0  0  0  0  0  0  0  0  0  0
  1  2  2  0  0  0  0
  2  3  1  0  0  0  0
  2  5  1  0  0  0  0
  3  4  1  0  0  0  0
  4  5  1  0  0  0  0
M  END
>  <DSSTox_RID>
21197

>  <DSSTox_CID>
1197

>  <DSSTox_Generic_SID>
21197

>  <DSSTox_FileID>
1254_CPDBAS_v5d

>  <STRUCTURE_Formula>
C3H4O2

>  <STRUCTURE_MolecularWeight>
72.0627

>  <STRUCTURE_ChemicalType>
defined organic

>  <STRUCTURE_TestedForm_DefinedOrganic>
parent

>  <STRUCTURE_Shown>
tested chemical

>  <TestSubstance_ChemicalName>
beta-Propiolactone

>  <TestSubstance_CASRN>
57-57-8

>  <TestSubstance_Description>
single chemical compound

>  <STRUCTURE_ChemicalName_IUPAC>
oxetan-2-one

>  <STRUCTURE_SMILES>
O=C1CCO1

>  <STRUCTURE_Parent_SMILES>
O=C1CCO1

>  <STRUCTURE_InChI>
InChI=1/C3H4O2/c4-3-1-2-5-3/h1-2H2

>  <STRUCTURE_InChIKey>
VEZXCJBBBCKRPI-UHFFFAOYAQ

>  <StudyType>
Carcinogenicity

>  <Endpoint>
TD50; Tumor Target Sites

>  <Species>
rat; mouse

>  <ActivityOutcome_CPDBAS_Mutagenicity>
active

>  <TD50_Rat_mg>
1.46

>  <TD50_Rat_mmol>
0.0203

>  <ActivityScore_CPDBAS_Rat>
43

>  <TD50_Rat_Note>
TD50 is harmonic mean of more than one positive test

>  <TargetSites_Rat_Female>
stomach

>  <ActivityOutcome_CPDBAS_Rat>
active

>  <TD50_Mouse_mg>
1.24

>  <TD50_Mouse_mmol>
0.0172

>  <ActivityScore_CPDBAS_Mouse>
48

>  <TD50_Mouse_Note>
TD50 is harmonic mean of more than one positive test

>  <TargetSites_Mouse_Male>
stomach

>  <TargetSites_Mouse_Female>
stomach

>  <ActivityOutcome_CPDBAS_Mouse>
active

>  <ActivityOutcome_CPDBAS_SingleCellCall>
active

>  <ActivityOutcome_CPDBAS_MultiCellCall>
active

>  <ActivityOutcome_CPDBAS_MultiCellCall_Details>
multisex active; multispecies active

>  <ChemicalPage_URL>
http://potency.berkeley.edu/chempages/beta-PROPIOLACTONE.html

$$$$



 13 12  0  0  0  0  0  0  0  0999 V2000
    3.9887   -4.6108    0.0000 O   0  0  0  0  0  0  0  0  0  0  0  0
    2.6614   -4.6108    0.0000 C   0  0  0  0  0  0  0  0  0  0  0  0
    1.9978   -5.7583    0.0000 N   0  0  0  0  0  0  0  0  0  0  0  0
    2.6614   -6.9127    0.0000 C   0  0  0  0  0  0  0  0  0  0  0  0
    3.9887   -6.9127    0.0000 C   0  0  0  0  0  0  0  0  0  0  0  0
    4.6592   -5.7583    0.0000 C   0  0  0  0  0  0  0  0  0  0  0  0
    5.9864   -5.7583    0.0000 C   0  0  0  0  0  0  0  0  0  0  0  0
    0.6636   -5.7583    0.0000 C   0  0  0  0  0  0  0  0  0  0  0  0
    0.0000   -6.9127    0.0000 C   0  0  0  0  0  0  0  0  0  0  0  0
    1.9978   -3.4564    0.0000 S   0  0  0  0  0  0  0  0  0  0  0  0
    2.6614   -2.3019    0.0000 C   0  0  0  0  0  0  0  0  0  0  0  0
    1.9978   -1.1544    0.0000 C   0  0  0  0  0  0  0  0  0  0  0  0
    2.6614    0.0000    0.0000 C   0  0  0  0  0  0  0  0  0  0  0  0
  1  2  2  0  0  0  0
  2  3  1  0  0  0  0
  2 10  1  0  0  0  0
  3  4  1  0  0  0  0
  3  8  1  0  0  0  0
  4  5  1  0  0  0  0
  5  6  1  0  0  0  0
  6  7  1  0  0  0  0
  8  9  1  0  0  0  0
 10 11  1  0  0  0  0
 11 12  1  0  0  0  0
 12 13  1  0  0  0  0
M  END
>  <DSSTox_RID>
21199

>  <DSSTox_CID>
1199

>  <DSSTox_Generic_SID>
21199

>  <DSSTox_FileID>
1256_CPDBAS_v5d

>  <STRUCTURE_Formula>
C10H21NOS

>  <STRUCTURE_MolecularWeight>
203.342

>  <STRUCTURE_ChemicalType>
defined organic

>  <STRUCTURE_TestedForm_DefinedOrganic>
parent

>  <STRUCTURE_Shown>
tested chemical

>  <TestSubstance_ChemicalName>
Propyl N-ethyl-N-butylthiocarbamate

>  <TestSubstance_CASRN>
1114-71-2

>  <TestSubstance_Description>
single chemical compound

>  <STRUCTURE_ChemicalName_IUPAC>
S-propyl butyl(ethyl)thiocarbamate

>  <STRUCTURE_SMILES>
O=C(N(CCCC)CC)SCCC

>  <STRUCTURE_Parent_SMILES>
O=C(N(CCCC)CC)SCCC

>  <STRUCTURE_InChI>
InChI=1/C10H21NOS/c1-4-7-8-11(6-3)10(12)13-9-5-2/h4-9H2,1-3H3

>  <STRUCTURE_InChIKey>
SGEJQUSYQTVSIU-UHFFFAOYAU

>  <StudyType>
Carcinogenicity

>  <Endpoint>
TD50; Tumor Target Sites

>  <Species>
mouse

>  <ActivityScore_CPDBAS_Mouse>
0

>  <TD50_Mouse_Note>
no positive results

>  <TargetSites_Mouse_Male>
no positive results

>  <TargetSites_Mouse_Female>
no positive results

>  <ActivityOutcome_CPDBAS_Mouse>
inactive

>  <ActivityOutcome_CPDBAS_SingleCellCall>
inactive

>  <ActivityOutcome_CPDBAS_MultiCellCall>
inactive

>  <ActivityOutcome_CPDBAS_MultiCellCall_Details>
multisex inactive

>  <ChemicalPage_URL>
http://potency.berkeley.edu/chempages/PROPYL%20N-ETHYL-N-BUTYLTHIOCARBAMATE,%20COMMERCIAL%20GR.html

$$$$



  7  6  0  0  0  0  0  0  0  0999 V2000
    3.4565   -0.6636    0.0000 N   0  0  0  0  0  0  0  0  0  0  0  0
    4.6086    0.0000    0.0000 N   0  0  0  0  0  0  0  0  0  0  0  0
    2.3043    0.0000    0.0000 C   0  0  0  0  0  0  0  0  0  0  0  0
    1.1522   -0.6636    0.0000 C   0  0  0  0  0  0  0  0  0  0  0  0
    0.0000    0.0000    0.0000 C   0  0  0  0  0  0  0  0  0  0  0  0
    3.4565   -1.9955    0.0000 C   0  0  0  0  0  0  0  0  0  0  0  0
    4.6086   -2.6592    0.0000 O   0  0  0  0  0  0  0  0  0  0  0  0
  1  2  1  0  0  0  0
  1  3  1  0  0  0  0
  1  6  1  0  0  0  0
  3  4  1  0  0  0  0
  4  5  1  0  0  0  0
  6  7  2  0  0  0  0
M  END
>  <DSSTox_RID>
21200

>  <DSSTox_CID>
1200

>  <DSSTox_Generic_SID>
21200

>  <DSSTox_FileID>
1257_CPDBAS_v5d

>  <STRUCTURE_Formula>
C4H10N2O

>  <STRUCTURE_MolecularWeight>
102.135

>  <STRUCTURE_ChemicalType>
defined organic

>  <STRUCTURE_TestedForm_DefinedOrganic>
parent

>  <STRUCTURE_Shown>
tested chemical

>  <TestSubstance_ChemicalName>
N-n-Propyl-N-formylhydrazine

>  <TestSubstance_CASRN>
77337-54-3

>  <TestSubstance_Description>
single chemical compound

>  <STRUCTURE_ChemicalName_IUPAC>
N-propylformic hydrazide

>  <STRUCTURE_SMILES>
NN(C=O)CCC

>  <STRUCTURE_Parent_SMILES>
NN(C=O)CCC

>  <STRUCTURE_InChI>
InChI=1/C4H10N2O/c1-2-3-6(5)4-7/h4H,2-3,5H2,1H3

>  <STRUCTURE_InChIKey>
JNTNNUXPPZAEFD-UHFFFAOYAE

>  <StudyType>
Carcinogenicity

>  <Endpoint>
TD50; Tumor Target Sites

>  <Species>
mouse

>  <TD50_Mouse_mg>
8.79

>  <TD50_Mouse_mmol>
0.0861

>  <ActivityScore_CPDBAS_Mouse>
40

>  <TD50_Mouse_Note>
TD50 is harmonic mean of more than one positive test

>  <TargetSites_Mouse_Male>
lung; preputial gland

>  <TargetSites_Mouse_Female>
gall bladder; liver; lung

>  <ActivityOutcome_CPDBAS_Mouse>
active

>  <ActivityOutcome_CPDBAS_SingleCellCall>
active

>  <ActivityOutcome_CPDBAS_MultiCellCall>
active

>  <ActivityOutcome_CPDBAS_MultiCellCall_Details>
multisite active; multisex active

>  <Note_CPDBAS>
TD50_Mouse modified v5b; chemical name corrected v5b; structure modified v5c

>  <ChemicalPage_URL>
http://potency.berkeley.edu/chempages/N-N'-PROPYL-N-FORMYLHYDRAZINE.html

$$$$



 15 15  0  0  0  0  0  0  0  0999 V2000
    3.3244   -1.1547    0.0000 O   0  0  0  0  0  0  0  0  0  0  0  0
    3.9948   -2.3094    0.0000 C   0  0  0  0  0  0  0  0  0  0  0  0
    5.3172   -2.3094    0.0000 C   0  0  0  0  0  0  0  0  0  0  0  0
    5.9876   -1.1547    0.0000 C   0  0  0  0  0  0  0  0  0  0  0  0
    7.3192   -1.1547    0.0000 C   0  0  0  0  0  0  0  0  0  0  0  0
    7.9804   -2.3094    0.0000 C   0  0  0  0  0  0  0  0  0  0  0  0
    7.3192   -3.4548    0.0000 C   0  0  0  0  0  0  0  0  0  0  0  0
    5.9876   -3.4548    0.0000 C   0  0  0  0  0  0  0  0  0  0  0  0
    7.9804   -4.6094    0.0000 O   0  0  0  0  0  0  0  0  0  0  0  0
    9.3120   -2.3094    0.0000 O   0  0  0  0  0  0  0  0  0  0  0  0
    7.9804    0.0000    0.0000 O   0  0  0  0  0  0  0  0  0  0  0  0
    3.3244   -3.4548    0.0000 O   0  0  0  0  0  0  0  0  0  0  0  0
    1.9928   -3.4548    0.0000 C   0  0  0  0  0  0  0  0  0  0  0  0
    1.3316   -4.6094    0.0000 C   0  0  0  0  0  0  0  0  0  0  0  0
    0.0000   -4.6094    0.0000 C   0  0  0  0  0  0  0  0  0  0  0  0
  1  2  2  0  0  0  0
  2  3  1  0  0  0  0
  2 12  1  0  0  0  0
  3  4  2  0  0  0  0
  3  8  1  0  0  0  0
  4  5  1  0  0  0  0
  5  6  2  0  0  0  0
  5 11  1  0  0  0  0
  6  7  1  0  0  0  0
  6 10  1  0  0  0  0
  7  8  2  0  0  0  0
  7  9  1  0  0  0  0
 12 13  1  0  0  0  0
 13 14  1  0  0  0  0
 14 15  1  0  0  0  0
M  END
>  <DSSTox_RID>
21201

>  <DSSTox_CID>
1201

>  <DSSTox_Generic_SID>
21201

>  <DSSTox_FileID>
1258_CPDBAS_v5d

>  <STRUCTURE_Formula>
C10H12O5

>  <STRUCTURE_MolecularWeight>
212.1993

>  <STRUCTURE_ChemicalType>
defined organic

>  <STRUCTURE_TestedForm_DefinedOrganic>
parent

>  <STRUCTURE_Shown>
tested chemical

>  <TestSubstance_ChemicalName>
Propyl gallate

>  <TestSubstance_CASRN>
121-79-9

>  <TestSubstance_Description>
single chemical compound

>  <STRUCTURE_ChemicalName_IUPAC>
propyl 3,4,5-trihydroxybenzoate

>  <STRUCTURE_SMILES>
O=C(C1=CC(=C(C(=C1)O)O)O)OCCC

>  <STRUCTURE_Parent_SMILES>
O=C(C1=CC(=C(C(=C1)O)O)O)OCCC

>  <STRUCTURE_InChI>
InChI=1/C10H12O5/c1-2-3-15-10(14)6-4-7(11)9(13)8(12)5-6/h4-5,11-13H,2-3H2,1H3

>  <STRUCTURE_InChIKey>
ZTHYODDOHIVTJV-UHFFFAOYAT

>  <StudyType>
Carcinogenicity

>  <Endpoint>
TD50; Tumor Target Sites

>  <Species>
rat; mouse

>  <ActivityOutcome_CPDBAS_Mutagenicity>
inactive

>  <ActivityScore_CPDBAS_Rat>
0

>  <TD50_Rat_Note>
no positive results

>  <TargetSites_Rat_Male>
no positive results

>  <TargetSites_Rat_Female>
no positive results

>  <ActivityOutcome_CPDBAS_Rat>
inactive

>  <ActivityScore_CPDBAS_Mouse>
0

>  <TD50_Mouse_Note>
no positive results

>  <TargetSites_Mouse_Male>
no positive results

>  <TargetSites_Mouse_Female>
no positive results

>  <ActivityOutcome_CPDBAS_Mouse>
inactive

>  <ActivityOutcome_CPDBAS_SingleCellCall>
inactive

>  <ActivityOutcome_CPDBAS_MultiCellCall>
inactive

>  <ActivityOutcome_CPDBAS_MultiCellCall_Details>
multisex inactive; multispecies inactive

>  <NTP_TechnicalReport>
TR 240

>  <ChemicalPage_URL>
http://potency.berkeley.edu/chempages/PROPYL%20GALLATE.html

$$$$



 26 28  0  0  0  0  0  0  0  0999 V2000
   11.4186    0.0000    0.0000 C   0  0  0  0  0  0  0  0  0  0  0  0
   10.0826    0.0000    0.0000 C   0  0  0  0  0  0  0  0  0  0  0  0
    9.4203   -1.1419    0.0000 C   0  0  0  0  0  0  0  0  0  0  0  0
    8.0958   -1.1419    0.0000 O   0  0  0  0  0  0  0  0  0  0  0  0
    7.4221   -2.2951    0.0000 C   0  0  0  0  0  0  0  0  0  0  0  0
    8.0958   -3.4484    0.0000 O   0  0  0  0  0  0  0  0  0  0  0  0
    6.0975   -2.2951    0.0000 C   0  0  3  0  0  0  0  0  0  0  0  0
    5.4353   -1.1419    0.0000 C   0  0  3  0  0  0  0  0  0  0  0  0
    6.0975    0.0000    0.0000 C   0  0  0  0  0  0  0  0  0  0  0  0
    4.0993   -1.1419    0.0000 C   0  0  0  0  0  0  0  0  0  0  0  0
    3.4370   -2.2951    0.0000 C   0  0  0  0  0  0  0  0  0  0  0  0
    4.0993   -3.4484    0.0000 C   0  0  0  0  0  0  0  0  0  0  0  0
    3.4370   -4.6017    0.0000 C   0  0  0  0  0  0  0  0  0  0  0  0
    2.1010   -4.6017    0.0000 C   0  0  0  0  0  0  0  0  0  0  0  0
    1.2104   -5.5951    0.0000 O   0  0  0  0  0  0  0  0  0  0  0  0
    0.0000   -5.0470    0.0000 C   0  0  0  0  0  0  0  0  0  0  0  0
    0.1370   -3.7339    0.0000 O   0  0  0  0  0  0  0  0  0  0  0  0
    1.4387   -3.4484    0.0000 C   0  0  0  0  0  0  0  0  0  0  0  0
    2.1010   -2.2951    0.0000 C   0  0  0  0  0  0  0  0  0  0  0  0
    5.4353   -3.4484    0.0000 C   0  0  3  0  0  0  0  0  0  0  0  0
    6.0975   -4.6017    0.0000 C   0  0  0  0  0  0  0  0  0  0  0  0
    5.4353   -5.7550    0.0000 O   0  0  0  0  0  0  0  0  0  0  0  0
    7.4221   -4.6017    0.0000 O   0  0  0  0  0  0  0  0  0  0  0  0
    8.0958   -5.7550    0.0000 C   0  0  0  0  0  0  0  0  0  0  0  0
    9.4203   -5.7550    0.0000 C   0  0  0  0  0  0  0  0  0  0  0  0
   10.0826   -6.9083    0.0000 C   0  0  0  0  0  0  0  0  0  0  0  0
  1  2  1  0  0  0  0
  2  3  1  0  0  0  0
  3  4  1  0  0  0  0
  4  5  1  0  0  0  0
  5  6  2  0  0  0  0
  5  7  1  0  0  0  0
  7  8  1  0  0  0  0
  7 20  1  0  0  0  0
  8  9  1  0  0  0  0
  8 10  1  0  0  0  0
 10 11  1  0  0  0  0
 11 12  2  0  0  0  0
 11 19  1  0  0  0  0
 12 13  1  0  0  0  0
 12 20  1  0  0  0  0
 13 14  2  0  0  0  0
 14 15  1  0  0  0  0
 14 18  1  0  0  0  0
 15 16  1  0  0  0  0
 16 17  1  0  0  0  0
 17 18  1  0  0  0  0
 18 19  2  0  0  0  0
 20 21  1  0  0  0  0
 21 22  2  0  0  0  0
 21 23  1  0  0  0  0
 23 24  1  0  0  0  0
 24 25  1  0  0  0  0
 25 26  1  0  0  0  0
M  END
>  <DSSTox_RID>
21202

>  <DSSTox_CID>
1202

>  <DSSTox_Generic_SID>
21202

>  <DSSTox_FileID>
1259_CPDBAS_v5d

>  <STRUCTURE_Formula>
C20H26O6

>  <STRUCTURE_MolecularWeight>
362.4218

>  <STRUCTURE_ChemicalType>
defined organic

>  <STRUCTURE_TestedForm_DefinedOrganic>
parent

>  <STRUCTURE_Shown>
tested chemical

>  <TestSubstance_ChemicalName>
n-Propyl isome

>  <TestSubstance_CASRN>
83-59-0

>  <TestSubstance_Description>
single chemical compound

>  <STRUCTURE_ChemicalName_IUPAC>
dipropyl 7-methyl-5,6,7,8-tetrahydronaphtho[2,3-d][1,3]dioxole-5,6-dicarboxylate

>  <STRUCTURE_SMILES>
CCCOC(=O)[CH]1[CH](C)CC2=C(C=C3OCOC3=C2)[CH]1C(=O)OCCC

>  <STRUCTURE_Parent_SMILES>
CCCOC(=O)[CH]1[CH](C)CC2=C(C=C3OCOC3=C2)[CH]1C(=O)OCCC

>  <STRUCTURE_InChI>
InChI=1/C20H26O6/c1-4-6-23-19(21)17-12(3)8-13-9-15-16(26-11-25-15)10-14(13)18(17)20(22)24-7-5-2/h9-10,12,17-18H,4-8,11H2,1-3H3

>  <STRUCTURE_InChIKey>
UEKQGZQLUMSLNW-UHFFFAOYAZ

>  <StudyType>
Carcinogenicity

>  <Endpoint>
TD50; Tumor Target Sites

>  <Species>
mouse

>  <ActivityScore_CPDBAS_Mouse>
0

>  <TD50_Mouse_Note>
no positive results

>  <TargetSites_Mouse_Male>
no positive results

>  <TargetSites_Mouse_Female>
no positive results

>  <ActivityOutcome_CPDBAS_Mouse>
inactive

>  <ActivityOutcome_CPDBAS_SingleCellCall>
inactive

>  <ActivityOutcome_CPDBAS_MultiCellCall>
inactive

>  <ActivityOutcome_CPDBAS_MultiCellCall_Details>
multisex inactive

>  <ChemicalPage_URL>
http://potency.berkeley.edu/chempages/n-PROPYL%20ISOME.html

$$$$



 12 11  0  0  0  0  0  0  0  0999 V2000
    3.9893   -3.4539    0.0000 N   0  0  0  0  0  0  0  0  0  0  0  0
    2.6595   -3.4539    0.0000 C   0  0  0  0  0  0  0  0  0  0  0  0
    1.9918   -4.6053    0.0000 N   0  0  0  0  0  0  0  0  0  0  0  0
    2.6595   -5.7566    0.0000 C   0  0  0  0  0  0  0  0  0  0  0  0
    3.9893   -5.7566    0.0000 C   0  0  0  0  0  0  0  0  0  0  0  0
    4.6513   -4.6053    0.0000 C   0  0  0  0  0  0  0  0  0  0  0  0
    0.6620   -4.6053    0.0000 N   0  0  0  0  0  0  0  0  0  0  0  0
    0.0000   -3.4539    0.0000 O   0  0  0  0  0  0  0  0  0  0  0  0
    1.9918   -2.3026    0.0000 N   0  0  0  0  0  0  0  0  0  0  0  0
    2.6595   -1.1513    0.0000 N   0  3  0  0  0  0  0  0  0  0  0  0
    1.9918    0.0000    0.0000 O   0  0  0  0  0  0  0  0  0  0  0  0
    3.9893   -1.1513    0.0000 O   0  5  0  0  0  0  0  0  0  0  0  0
  1  2  2  0  0  0  0
  2  3  1  0  0  0  0
  2  9  1  0  0  0  0
  3  4  1  0  0  0  0
  3  7  1  0  0  0  0
  4  5  1  0  0  0  0
  5  6  1  0  0  0  0
  7  8  2  0  0  0  0
  9 10  1  0  0  0  0
 10 11  2  0  0  0  0
 10 12  1  0  0  0  0
M  END
>  <DSSTox_RID>
21203

>  <DSSTox_CID>
1203

>  <DSSTox_Generic_SID>
21203

>  <DSSTox_FileID>
1260_CPDBAS_v5d

>  <STRUCTURE_Formula>
C4H9N5O3

>  <STRUCTURE_MolecularWeight>
175.1468

>  <STRUCTURE_ChemicalType>
defined organic

>  <STRUCTURE_TestedForm_DefinedOrganic>
parent

>  <STRUCTURE_Shown>
tested chemical

>  <TestSubstance_ChemicalName>
N-Propyl-N'-nitro-N-nitrosoguanidine

>  <TestSubstance_CASRN>
13010-07-6

>  <TestSubstance_Description>
single chemical compound

>  <STRUCTURE_ChemicalName_IUPAC>
3-nitro-1-nitroso-1-propylguanidine

>  <STRUCTURE_SMILES>
N=C(N(CCC)N=O)N[N+](=O)[O-]

>  <STRUCTURE_Parent_SMILES>
N=C(N(CCC)N=O)N[N+](=O)[O-]

>  <STRUCTURE_InChI>
InChI=1/C4H9N5O3/c1-2-3-8(7-10)4(5)6-9(11)12/h2-3H2,1H3,(H2,5,6)/f/h5-6H

>  <STRUCTURE_InChIKey>
PVVCHFOAZOVDRK-JYEHRPOACS

>  <StudyType>
Carcinogenicity

>  <Endpoint>
TD50; Tumor Target Sites

>  <Species>
rat

>  <ActivityOutcome_CPDBAS_Mutagenicity>
active

>  <TD50_Rat_mg>
1.31

>  <TD50_Rat_mmol>
0.00748

>  <ActivityScore_CPDBAS_Rat>
48

>  <TD50_Rat_Note>
TD50 is harmonic mean of more than one positive test

>  <TargetSites_Rat_Male>
stomach

>  <ActivityOutcome_CPDBAS_Rat>
active

>  <ActivityOutcome_CPDBAS_SingleCellCall>
active

>  <ChemicalPage_URL>
http://potency.berkeley.edu/chempages/N-PROPYL-N'-NITRO-N-NITROSOGUANIDINE.html

$$$$



  9  8  0  0  0  0  0  0  0  0999 V2000
    0.0000   -1.9953    0.0000 O   0  0  0  0  0  0  0  0  0  0  0  0
    1.1520   -2.6588    0.0000 N   0  0  0  0  0  0  0  0  0  0  0  0
    2.3040   -1.9953    0.0000 N   0  0  0  0  0  0  0  0  0  0  0  0
    2.3040   -0.6635    0.0000 C   0  0  0  0  0  0  0  0  0  0  0  0
    1.1520    0.0000    0.0000 O   0  0  0  0  0  0  0  0  0  0  0  0
    3.4560    0.0000    0.0000 N   0  0  0  0  0  0  0  0  0  0  0  0
    3.4560   -2.6588    0.0000 C   0  0  0  0  0  0  0  0  0  0  0  0
    4.6080   -1.9953    0.0000 C   0  0  0  0  0  0  0  0  0  0  0  0
    4.6080   -0.6635    0.0000 C   0  0  0  0  0  0  0  0  0  0  0  0
  1  2  2  0  0  0  0
  2  3  1  0  0  0  0
  3  4  1  0  0  0  0
  3  7  1  0  0  0  0
  4  5  2  0  0  0  0
  4  6  1  0  0  0  0
  7  8  1  0  0  0  0
  8  9  1  0  0  0  0
M  END
>  <DSSTox_RID>
21204

>  <DSSTox_CID>
1204

>  <DSSTox_Generic_SID>
21204

>  <DSSTox_FileID>
1261_CPDBAS_v5d

>  <STRUCTURE_Formula>
C4H9N3O2

>  <STRUCTURE_MolecularWeight>
131.134

>  <STRUCTURE_ChemicalType>
defined organic

>  <STRUCTURE_TestedForm_DefinedOrganic>
parent

>  <STRUCTURE_Shown>
tested chemical

>  <TestSubstance_ChemicalName>
N-Propyl-N-nitrosourea

>  <TestSubstance_CASRN>
816-57-9

>  <TestSubstance_Description>
single chemical compound

>  <STRUCTURE_ChemicalName_IUPAC>
1-nitroso-1-propylurea

>  <STRUCTURE_SMILES>
O=NN(C(=O)N)CCC

>  <STRUCTURE_Parent_SMILES>
O=NN(C(=O)N)CCC

>  <STRUCTURE_InChI>
InChI=1/C4H9N3O2/c1-2-3-7(6-9)4(5)8/h2-3H2,1H3,(H2,5,8)/f/h5H2

>  <STRUCTURE_InChIKey>
YGGSSUISOYLCBF-GLFQYTTQCO

>  <StudyType>
Carcinogenicity

>  <Endpoint>
TD50; Tumor Target Sites

>  <Species>
rat

>  <ActivityOutcome_CPDBAS_Mutagenicity>
active

>  <TD50_Rat_mg>
3.77

>  <TD50_Rat_mmol>
0.0287

>  <ActivityScore_CPDBAS_Rat>
42

>  <TD50_Rat_Note>
TD50 is harmonic mean of more than one positive test; harmonic mean of TD50 includes a value for upper 99% confidence limit from study with 100% tumor incidence but no lifetable

>  <TargetSites_Rat_Male>
hematopoietic system

>  <TargetSites_Rat_Female>
hematopoietic system

>  <ActivityOutcome_CPDBAS_Rat>
active

>  <ActivityOutcome_CPDBAS_SingleCellCall>
active

>  <ActivityOutcome_CPDBAS_MultiCellCall>
active

>  <ActivityOutcome_CPDBAS_MultiCellCall_Details>
multisex active

>  <Note_CPDBAS>
TD50_Rat_Note modified v5a

>  <ChemicalPage_URL>
http://potency.berkeley.edu/chempages/N-PROPYL-N-NITROSOUREA.html

$$$$



  3  2  0  0  0  0  0  0  0  0999 V2000
    2.3030   -0.6656    0.0000 C   0  0  0  0  0  0  0  0  0  0  0  0
    1.1515    0.0000    0.0000 C   0  0  0  0  0  0  0  0  0  0  0  0
    0.0000   -0.6656    0.0000 C   0  0  0  0  0  0  0  0  0  0  0  0
  1  2  1  0  0  0  0
  2  3  2  0  0  0  0
M  END
>  <DSSTox_RID>
21205

>  <DSSTox_CID>
1205

>  <DSSTox_Generic_SID>
21205

>  <DSSTox_FileID>
1262_CPDBAS_v5d

>  <STRUCTURE_Formula>
C3H6

>  <STRUCTURE_MolecularWeight>
42.0797

>  <STRUCTURE_ChemicalType>
defined organic

>  <STRUCTURE_TestedForm_DefinedOrganic>
parent

>  <STRUCTURE_Shown>
tested chemical

>  <TestSubstance_ChemicalName>
Propylene

>  <TestSubstance_CASRN>
115-07-1

>  <TestSubstance_Description>
single chemical compound

>  <STRUCTURE_ChemicalName_IUPAC>
prop-1-ene

>  <STRUCTURE_SMILES>
CC=C

>  <STRUCTURE_Parent_SMILES>
CC=C

>  <STRUCTURE_InChI>
InChI=1/C3H6/c1-3-2/h3H,1H2,2H3

>  <STRUCTURE_InChIKey>
QQONPFPTGQHPMA-UHFFFAOYAA

>  <StudyType>
Carcinogenicity

>  <Endpoint>
TD50; Tumor Target Sites

>  <Species>
rat; mouse

>  <ActivityOutcome_CPDBAS_Mutagenicity>
active

>  <ActivityScore_CPDBAS_Rat>
0

>  <TD50_Rat_Note>
no positive results

>  <TargetSites_Rat_Male>
no positive results

>  <TargetSites_Rat_Female>
no positive results

>  <ActivityOutcome_CPDBAS_Rat>
inactive

>  <ActivityScore_CPDBAS_Mouse>
0

>  <TD50_Mouse_Note>
no positive results

>  <TargetSites_Mouse_Male>
no positive results

>  <TargetSites_Mouse_Female>
no positive results

>  <ActivityOutcome_CPDBAS_Mouse>
inactive

>  <ActivityOutcome_CPDBAS_SingleCellCall>
inactive

>  <ActivityOutcome_CPDBAS_MultiCellCall>
inactive

>  <ActivityOutcome_CPDBAS_MultiCellCall_Details>
multisex inactive; multispecies inactive

>  <NTP_TechnicalReport>
TR 272

>  <ChemicalPage_URL>
http://potency.berkeley.edu/chempages/PROPYLENE.html

$$$$



  5  4  0  0  0  0  0  0  0  0999 V2000
    3.4567   -1.9945    0.0000 C   0  0  0  0  0  0  0  0  0  0  0  0
    2.3056   -1.3308    0.0000 C   0  0  3  0  0  0  0  0  0  0  0  0
    1.1511   -1.9945    0.0000 C   0  0  0  0  0  0  0  0  0  0  0  0
    0.0000   -1.3308    0.0000 O   0  0  0  0  0  0  0  0  0  0  0  0
    2.3056    0.0000    0.0000 O   0  0  0  0  0  0  0  0  0  0  0  0
  1  2  1  0  0  0  0
  2  3  1  0  0  0  0
  2  5  1  0  0  0  0
  3  4  1  0  0  0  0
M  END
>  <DSSTox_RID>
21206

>  <DSSTox_CID>
1206

>  <DSSTox_Generic_SID>
21206

>  <DSSTox_FileID>
1263_CPDBAS_v5d

>  <STRUCTURE_Formula>
C3H8O2

>  <STRUCTURE_MolecularWeight>
76.0944

>  <STRUCTURE_ChemicalType>
defined organic

>  <STRUCTURE_TestedForm_DefinedOrganic>
parent

>  <STRUCTURE_Shown>
tested chemical

>  <TestSubstance_ChemicalName>
Propylene glycol

>  <TestSubstance_CASRN>
57-55-6

>  <TestSubstance_Description>
single chemical compound

>  <STRUCTURE_ChemicalName_IUPAC>
propylene glycol

>  <STRUCTURE_SMILES>
CC(CO)O

>  <STRUCTURE_Parent_SMILES>
CC(CO)O

>  <STRUCTURE_InChI>
InChI=1/C3H8O2/c1-3(5)2-4/h3-5H,2H2,1H3

>  <STRUCTURE_InChIKey>
DNIAPMSPPWPWGF-UHFFFAOYAE

>  <StudyType>
Carcinogenicity

>  <Endpoint>
TD50; Tumor Target Sites

>  <Species>
rat

>  <ActivityOutcome_CPDBAS_Mutagenicity>
inactive

>  <ActivityScore_CPDBAS_Rat>
0

>  <TD50_Rat_Note>
no positive results

>  <TargetSites_Rat_Male>
no positive results

>  <TargetSites_Rat_Female>
no positive results

>  <ActivityOutcome_CPDBAS_Rat>
inactive

>  <ActivityOutcome_CPDBAS_SingleCellCall>
inactive

>  <ActivityOutcome_CPDBAS_MultiCellCall>
inactive

>  <ActivityOutcome_CPDBAS_MultiCellCall_Details>
multisex inactive

>  <ChemicalPage_URL>
http://potency.berkeley.edu/chempages/PROPYLENE%20GLYCOL.html

$$$$



  9  8  0  0  0  0  0  0  0  0999 V2000
    4.6112    0.0000    0.0000 O   0  0  0  0  0  0  0  0  0  0  0  0
    4.6112   -1.3315    0.0000 C   0  0  3  0  0  0  0  0  0  0  0  0
    3.4584   -1.9943    0.0000 C   0  0  0  0  0  0  0  0  0  0  0  0
    2.3056   -1.3315    0.0000 O   0  0  0  0  0  0  0  0  0  0  0  0
    1.1528   -1.9943    0.0000 C   0  0  0  0  0  0  0  0  0  0  0  0
    1.8157   -3.1471    0.0000 C   0  0  0  0  0  0  0  0  0  0  0  0
    0.0000   -2.6572    0.0000 C   0  0  0  0  0  0  0  0  0  0  0  0
    0.4899   -0.8415    0.0000 C   0  0  0  0  0  0  0  0  0  0  0  0
    5.7640   -1.9943    0.0000 C   0  0  0  0  0  0  0  0  0  0  0  0
  1  2  1  0  0  0  0
  2  3  1  0  0  0  0
  2  9  1  0  0  0  0
  3  4  1  0  0  0  0
  4  5  1  0  0  0  0
  5  6  1  0  0  0  0
  5  7  1  0  0  0  0
  5  8  1  0  0  0  0
M  END
>  <DSSTox_RID>
40823

>  <DSSTox_CID>
5967

>  <DSSTox_Generic_SID>
25967

>  <DSSTox_FileID>
1264_CPDBAS_v5d

>  <STRUCTURE_Formula>
C7H16O2

>  <STRUCTURE_MolecularWeight>
132.2007

>  <STRUCTURE_ChemicalType>
defined organic

>  <STRUCTURE_TestedForm_DefinedOrganic>
parent

>  <STRUCTURE_Shown>
tested chemical

>  <TestSubstance_ChemicalName>
Propylene glycol mono-t-butyl ether

>  <TestSubstance_CASRN>
57018-52-7

>  <TestSubstance_Description>
single chemical compound

>  <STRUCTURE_ChemicalName_IUPAC>
1-tert-butoxypropan-2-ol

>  <STRUCTURE_SMILES>
OC(COC(C)(C)C)C

>  <STRUCTURE_Parent_SMILES>
OC(COC(C)(C)C)C

>  <STRUCTURE_InChI>
InChI=1/C7H16O2/c1-6(8)5-9-7(2,3)4/h6,8H,5H2,1-4H3

>  <STRUCTURE_InChIKey>
GQCZPFJGIXHZMB-UHFFFAOYAL

>  <StudyType>
Carcinogenicity

>  <Endpoint>
TD50; Tumor Target Sites

>  <Species>
rat; mouse

>  <ActivityOutcome_CPDBAS_Mutagenicity>
active

>  <ActivityScore_CPDBAS_Rat>
0

>  <TD50_Rat_Note>
no positive results

>  <TargetSites_Rat_Male>
no positive results

>  <TargetSites_Rat_Female>
no positive results

>  <ActivityOutcome_CPDBAS_Rat>
inactive

>  <TD50_Mouse_mg>
1870

>  <TD50_Mouse_mmol>
14.1

>  <ActivityScore_CPDBAS_Mouse>
15

>  <TD50_Mouse_Note>
TD50 is harmonic mean of more than one positive test

>  <TargetSites_Mouse_Male>
liver

>  <TargetSites_Mouse_Female>
liver

>  <ActivityOutcome_CPDBAS_Mouse>
active

>  <ActivityOutcome_CPDBAS_SingleCellCall>
active

>  <ActivityOutcome_CPDBAS_MultiCellCall>
active

>  <ActivityOutcome_CPDBAS_MultiCellCall_Details>
multisex active

>  <Note_CPDBAS>
Rat added v5a; Mouse added v5a; Mutagenicity_SAL_CPDB added v5a; chemical added v5a

>  <ChemicalPage_URL>
http://potency.berkeley.edu/chempages/PROPYLENE%20GLYCOL%20MONO-t-BUTYL%20ETHER.html

$$$$



  4  4  0  0  0  0  0  0  0  0999 V2000
    0.0000   -0.6651    0.0000 C   0  0  0  0  0  0  0  0  0  0  0  0
    1.3302   -0.6651    0.0000 C   0  0  3  0  0  0  0  0  0  0  0  0
    2.4817    0.0000    0.0000 C   0  0  0  0  0  0  0  0  0  0  0  0
    2.4817   -1.3302    0.0000 O   0  0  0  0  0  0  0  0  0  0  0  0
  1  2  1  0  0  0  0
  2  3  1  0  0  0  0
  2  4  1  0  0  0  0
  3  4  1  0  0  0  0
M  END
>  <DSSTox_RID>
21207

>  <DSSTox_CID>
1207

>  <DSSTox_Generic_SID>
21207

>  <DSSTox_FileID>
1265_CPDBAS_v5d

>  <STRUCTURE_Formula>
C3H6O

>  <STRUCTURE_MolecularWeight>
58.0791

>  <STRUCTURE_ChemicalType>
defined organic

>  <STRUCTURE_TestedForm_DefinedOrganic>
parent

>  <STRUCTURE_Shown>
tested chemical

>  <TestSubstance_ChemicalName>
1,2-Propylene oxide

>  <TestSubstance_CASRN>
75-56-9

>  <TestSubstance_Description>
single chemical compound

>  <STRUCTURE_ChemicalName_IUPAC>
2-methyloxirane

>  <STRUCTURE_SMILES>
CC1CO1

>  <STRUCTURE_Parent_SMILES>
CC1CO1

>  <STRUCTURE_InChI>
InChI=1/C3H6O/c1-3-2-4-3/h3H,2H2,1H3

>  <STRUCTURE_InChIKey>
GOOHAUXETOMSMM-UHFFFAOYAI

>  <StudyType>
Carcinogenicity

>  <Endpoint>
TD50; Tumor Target Sites

>  <Species>
rat; mouse

>  <ActivityOutcome_CPDBAS_Mutagenicity>
active

>  <TD50_Rat_mg>
74.4

>  <TD50_Rat_mmol>
1.28

>  <ActivityScore_CPDBAS_Rat>
25

>  <TD50_Rat_Note>
TD50 is harmonic mean of more than one positive test; greater than ten-fold variation among TD50 values for positive results

>  <TargetSites_Rat_Male>
adrenal gland; nasal cavity

>  <TargetSites_Rat_Female>
mammary gland; nasal cavity; stomach

>  <ActivityOutcome_CPDBAS_Rat>
active

>  <TD50_Mouse_mg>
912

>  <TD50_Mouse_mmol>
15.7

>  <ActivityScore_CPDBAS_Mouse>
15

>  <TD50_Mouse_Note>
TD50 is harmonic mean of more than one positive test

>  <TargetSites_Mouse_Male>
nasal cavity

>  <TargetSites_Mouse_Female>
nasal cavity

>  <ActivityOutcome_CPDBAS_Mouse>
active

>  <ActivityOutcome_CPDBAS_SingleCellCall>
active

>  <ActivityOutcome_CPDBAS_MultiCellCall>
active

>  <ActivityOutcome_CPDBAS_MultiCellCall_Details>
multisite active; multisex active; multispecies active

>  <NTP_TechnicalReport>
TR 267; additional results included in CPDB

>  <ChemicalPage_URL>
http://potency.berkeley.edu/chempages/1,2-PROPYLENE%20OXIDE.html

$$$$



 11 11  0  0  0  0  0  0  0  0999 V2000
    2.3019    0.0000    0.0000 O   0  0  0  0  0  0  0  0  0  0  0  0
    2.3019   -1.3272    0.0000 C   0  0  0  0  0  0  0  0  0  0  0  0
    3.4563   -1.9908    0.0000 C   0  0  0  0  0  0  0  0  0  0  0  0
    3.4563   -3.3250    0.0000 C   0  0  0  0  0  0  0  0  0  0  0  0
    2.3019   -3.9886    0.0000 N   0  0  0  0  0  0  0  0  0  0  0  0
    1.1544   -3.3250    0.0000 C   0  0  0  0  0  0  0  0  0  0  0  0
    0.0000   -3.9886    0.0000 S   0  0  0  0  0  0  0  0  0  0  0  0
    1.1544   -1.9908    0.0000 N   0  0  0  0  0  0  0  0  0  0  0  0
    4.6107   -3.9886    0.0000 C   0  0  0  0  0  0  0  0  0  0  0  0
    5.7582   -3.3250    0.0000 C   0  0  0  0  0  0  0  0  0  0  0  0
    6.9126   -3.9886    0.0000 C   0  0  0  0  0  0  0  0  0  0  0  0
  1  2  2  0  0  0  0
  2  3  1  0  0  0  0
  2  8  1  0  0  0  0
  3  4  2  0  0  0  0
  4  5  1  0  0  0  0
  4  9  1  0  0  0  0
  5  6  1  0  0  0  0
  6  7  2  0  0  0  0
  6  8  1  0  0  0  0
  9 10  1  0  0  0  0
 10 11  1  0  0  0  0
M  END
>  <DSSTox_RID>
21209

>  <DSSTox_CID>
1209

>  <DSSTox_Generic_SID>
21209

>  <DSSTox_FileID>
1267_CPDBAS_v5d

>  <STRUCTURE_Formula>
C7H10N2OS

>  <STRUCTURE_MolecularWeight>
170.2321

>  <STRUCTURE_ChemicalType>
defined organic

>  <STRUCTURE_TestedForm_DefinedOrganic>
parent

>  <STRUCTURE_Shown>
tested chemical

>  <TestSubstance_ChemicalName>
Propylthiouracil

>  <TestSubstance_CASRN>
51-52-5

>  <TestSubstance_Description>
single chemical compound

>  <STRUCTURE_ChemicalName_IUPAC>
6-propyl-2-thioxo-2,3-dihydropyrimidin-4(1H)-one

>  <STRUCTURE_SMILES>
O=C1C=C(NC(=S)N1)CCC

>  <STRUCTURE_Parent_SMILES>
O=C1C=C(NC(=S)N1)CCC

>  <STRUCTURE_InChI>
InChI=1/C7H10N2OS/c1-2-3-5-4-6(10)9-7(11)8-5/h4H,2-3H2,1H3,(H2,8,9,10,11)/f/h8-9H

>  <STRUCTURE_InChIKey>
KNAHARQHSZJURB-DEPUQRHOCL

>  <StudyType>
Carcinogenicity

>  <Endpoint>
TD50; Tumor Target Sites

>  <Species>
rat; mouse

>  <ActivityOutcome_CPDBAS_Mutagenicity>
inactive

>  <TD50_Rat_mg>
13.7

>  <TD50_Rat_mmol>
0.0805

>  <ActivityScore_CPDBAS_Rat>
37

>  <TD50_Rat_Note>
TD50 is harmonic mean of more than one positive test

>  <TargetSites_Rat_Male>
thyroid gland

>  <TargetSites_Rat_Female>
thyroid gland

>  <ActivityOutcome_CPDBAS_Rat>
active

>  <TD50_Mouse_mg>
409

>  <TD50_Mouse_mmol>
2.4

>  <ActivityScore_CPDBAS_Mouse>
24

>  <TargetSites_Mouse_BothSexes>
pituitary gland

>  <ActivityOutcome_CPDBAS_Mouse>
active

>  <ActivityOutcome_CPDBAS_SingleCellCall>
active

>  <ActivityOutcome_CPDBAS_MultiCellCall>
active

>  <ActivityOutcome_CPDBAS_MultiCellCall_Details>
multisite active; multisex active; multispecies active

>  <Note_CPDBAS>
Mutagenicity_SAL_CPDB added v3a

>  <ChemicalPage_URL>
http://potency.berkeley.edu/chempages/PROPYLTHIOURACIL.html

$$$$



 21 23  0  0  0  0  0  0  0  0999 V2000
    6.9099   -5.3215    0.0000 C   0  0  0  0  0  0  0  0  0  0  0  0
    5.7569   -5.9827    0.0000 C   0  0  0  0  0  0  0  0  0  0  0  0
    4.6039   -5.3215    0.0000 C   0  0  0  0  0  0  0  0  0  0  0  0
    4.6039   -3.9912    0.0000 C   0  0  0  0  0  0  0  0  0  0  0  0
    5.7569   -3.3219    0.0000 C   0  0  0  0  0  0  0  0  0  0  0  0
    6.9099   -3.9912    0.0000 C   0  0  0  0  0  0  0  0  0  0  0  0
    5.7569   -1.9915    0.0000 N   0  0  0  0  0  0  0  0  0  0  0  0
    4.6039   -1.3304    0.0000 C   0  0  0  0  0  0  0  0  0  0  0  0
    3.4590   -1.9915    0.0000 N   0  0  0  0  0  0  0  0  0  0  0  0
    3.4590   -3.3219    0.0000 C   0  0  0  0  0  0  0  0  0  0  0  0
    2.3060   -3.9912    0.0000 C   0  0  0  0  0  0  0  0  0  0  0  0
    2.3060   -5.3215    0.0000 C   0  0  0  0  0  0  0  0  0  0  0  0
    1.1530   -5.9827    0.0000 C   0  0  0  0  0  0  0  0  0  0  0  0
    0.0000   -5.3215    0.0000 C   0  0  0  0  0  0  0  0  0  0  0  0
    0.0000   -3.9912    0.0000 C   0  0  0  0  0  0  0  0  0  0  0  0
    1.1530   -3.3219    0.0000 C   0  0  0  0  0  0  0  0  0  0  0  0
    4.6039    0.0000    0.0000 O   0  0  0  0  0  0  0  0  0  0  0  0
    6.9099   -1.3304    0.0000 C   0  0  0  0  0  0  0  0  0  0  0  0
    8.0629   -1.9915    0.0000 C   0  0  0  0  0  0  0  0  0  0  0  0
    6.9099    0.0000    0.0000 C   0  0  0  0  0  0  0  0  0  0  0  0
    8.0629   -5.9827    0.0000 C   0  0  0  0  0  0  0  0  0  0  0  0
  1  2  2  0  0  0  0
  1  6  1  0  0  0  0
  1 21  1  0  0  0  0
  2  3  1  0  0  0  0
  3  4  2  0  0  0  0
  4  5  1  0  0  0  0
  4 10  1  0  0  0  0
  5  6  2  0  0  0  0
  5  7  1  0  0  0  0
  7  8  1  0  0  0  0
  7 18  1  0  0  0  0
  8  9  1  0  0  0  0
  8 17  2  0  0  0  0
  9 10  2  0  0  0  0
 10 11  1  0  0  0  0
 11 12  2  0  0  0  0
 11 16  1  0  0  0  0
 12 13  1  0  0  0  0
 13 14  2  0  0  0  0
 14 15  1  0  0  0  0
 15 16  2  0  0  0  0
 18 19  1  0  0  0  0
 18 20  1  0  0  0  0
M  END
>  <DSSTox_RID>
21210

>  <DSSTox_CID>
1210

>  <DSSTox_Generic_SID>
21210

>  <DSSTox_FileID>
1268_CPDBAS_v5d

>  <STRUCTURE_Formula>
C18H18N2O

>  <STRUCTURE_MolecularWeight>
278.353

>  <STRUCTURE_ChemicalType>
defined organic

>  <STRUCTURE_TestedForm_DefinedOrganic>
parent

>  <STRUCTURE_Shown>
tested chemical

>  <TestSubstance_ChemicalName>
Proquazone

>  <TestSubstance_CASRN>
22760-18-5

>  <TestSubstance_Description>
single chemical compound

>  <STRUCTURE_ChemicalName_IUPAC>
7-methyl-1-(1-methylethyl)-4-phenylquinazolin-2(1H)-one

>  <STRUCTURE_SMILES>
C1(=CC=C2C(=C1)N(C(\N=C/2C3=CC=CC=C3)=O)C(C)C)C

>  <STRUCTURE_Parent_SMILES>
C1(=CC=C2C(=C1)N(C(\N=C/2C3=CC=CC=C3)=O)C(C)C)C

>  <STRUCTURE_InChI>
InChI=1/C18H18N2O/c1-12(2)20-16-11-13(3)9-10-15(16)17(19-18(20)21)14-7-5-4-6-8-14/h4-12H,1-3H3

>  <STRUCTURE_InChIKey>
JTIGKVIOEQASGT-UHFFFAOYAZ

>  <StudyType>
Carcinogenicity

>  <Endpoint>
TD50; Tumor Target Sites

>  <Species>
mouse

>  <ActivityScore_CPDBAS_Mouse>
0

>  <TD50_Mouse_Note>
no positive results

>  <TargetSites_Mouse_Male>
no positive results

>  <TargetSites_Mouse_Female>
no positive results

>  <ActivityOutcome_CPDBAS_Mouse>
inactive

>  <ActivityOutcome_CPDBAS_SingleCellCall>
inactive

>  <ActivityOutcome_CPDBAS_MultiCellCall>
inactive

>  <ActivityOutcome_CPDBAS_MultiCellCall_Details>
multisex inactive

>  <ChemicalPage_URL>
http://potency.berkeley.edu/chempages/PROQUAZONE.html

$$$$



 34 37  0  0  1  0  0  0  0  0999 V2000
    6.8454   -4.6108    0.0000 C   0  0  0  0  0  0  0  0  0  0  0  0
    5.7028   -3.9536    0.0000 C   0  0  2  0  0  0  0  0  0  0  0  0
    5.7028   -2.6189    0.0000 C   0  0  1  0  0  0  0  0  0  0  0  0
    4.5703   -1.9717    0.0000 C   0  0  0  0  0  0  0  0  0  0  0  0
    4.5703   -0.6471    0.0000 O   0  0  0  0  0  0  0  0  0  0  0  0
    3.4278   -2.6189    0.0000 N   0  0  0  0  0  0  0  0  0  0  0  0
    2.2852   -1.9717    0.0000 N   0  0  0  0  0  0  0  0  0  0  0  0
    1.1426   -2.6189    0.0000 C   0  0  0  0  0  0  0  0  0  0  0  0
    0.0000   -1.9717    0.0000 C   0  0  0  0  0  0  0  0  0  0  0  0
    6.8454   -1.9717    0.0000 C   0  0  1  0  0  0  0  0  0  0  0  0
    7.9880   -2.6189    0.0000 C   0  0  2  0  0  0  0  0  0  0  0  0
    7.9880   -3.9536    0.0000 C   0  0  0  0  0  0  0  0  0  0  0  0
    9.1306   -4.6108    0.0000 C   0  0  0  0  0  0  0  0  0  0  0  0
    9.1306   -5.9253    0.0000 C   0  0  0  0  0  0  0  0  0  0  0  0
    7.9880   -6.5825    0.0000 C   0  0  0  0  0  0  0  0  0  0  0  0
    6.8454   -5.9253    0.0000 C   0  0  0  0  0  0  0  0  0  0  0  0
    8.2610   -7.8768    0.0000 O   0  0  0  0  0  0  0  0  0  0  0  0
    9.5755   -8.0082    0.0000 C   0  0  0  0  0  0  0  0  0  0  0  0
   10.1114   -6.8151    0.0000 O   0  0  0  0  0  0  0  0  0  0  0  0
    9.1306   -1.9717    0.0000 O   0  0  0  0  0  0  0  0  0  0  0  0
    6.8454   -0.6471    0.0000 C   0  0  0  0  0  0  0  0  0  0  0  0
    7.9880    0.0000    0.0000 O   0  0  0  0  0  0  0  0  0  0  0  0
    4.5703   -4.6108    0.0000 C   0  0  0  0  0  0  0  0  0  0  0  0
    4.5703   -5.9253    0.0000 C   0  0  0  0  0  0  0  0  0  0  0  0
    3.4278   -6.5825    0.0000 C   0  0  0  0  0  0  0  0  0  0  0  0
    2.2852   -5.9253    0.0000 C   0  0  0  0  0  0  0  0  0  0  0  0
    2.2852   -4.6108    0.0000 C   0  0  0  0  0  0  0  0  0  0  0  0
    3.4278   -3.9536    0.0000 C   0  0  0  0  0  0  0  0  0  0  0  0
    1.1426   -3.9536    0.0000 O   0  0  0  0  0  0  0  0  0  0  0  0
    0.0000   -4.6108    0.0000 C   0  0  0  0  0  0  0  0  0  0  0  0
    0.8494   -5.9859    0.0000 O   0  0  0  0  0  0  0  0  0  0  0  0
    0.0000   -7.4117    0.0000 C   0  0  0  0  0  0  0  0  0  0  0  0
    3.4278   -7.9071    0.0000 O   0  0  0  0  0  0  0  0  0  0  0  0
    2.2852   -8.5643    0.0000 C   0  0  0  0  0  0  0  0  0  0  0  0
  1  2  1  0  0  0  0
  1 12  2  0  0  0  0
  1 16  1  0  0  0  0
  2  3  1  0  0  0  0
  2 23  1  1  0  0  0
  3  4  1  1  0  0  0
  3 10  1  0  0  0  0
  4  5  2  0  0  0  0
  4  6  1  0  0  0  0
  6  7  1  0  0  0  0
  7  8  1  0  0  0  0
  8  9  1  0  0  0  0
 10 11  1  0  0  0  0
 10 21  1  6  0  0  0
 11 12  1  0  0  0  0
 11 20  1  1  0  0  0
 12 13  1  0  0  0  0
 13 14  2  0  0  0  0
 14 15  1  0  0  0  0
 14 19  1  0  0  0  0
 15 16  2  0  0  0  0
 15 17  1  0  0  0  0
 17 18  1  0  0  0  0
 18 19  1  0  0  0  0
 21 22  1  0  0  0  0
 23 24  2  0  0  0  0
 23 28  1  0  0  0  0
 24 25  1  0  0  0  0
 25 26  2  0  0  0  0
 25 33  1  0  0  0  0
 26 27  1  0  0  0  0
 26 31  1  0  0  0  0
 27 28  2  0  0  0  0
 27 29  1  0  0  0  0
 29 30  1  0  0  0  0
 31 32  1  0  0  0  0
 33 34  1  0  0  0  0
M  END
>  <DSSTox_RID>
21211

>  <DSSTox_CID>
1211

>  <DSSTox_Generic_SID>
21211

>  <DSSTox_FileID>
1269_CPDBAS_v5d

>  <STRUCTURE_Formula>
C24H30N2O8

>  <STRUCTURE_MolecularWeight>
474.5036

>  <STRUCTURE_ChemicalType>
defined organic

>  <STRUCTURE_TestedForm_DefinedOrganic>
parent

>  <STRUCTURE_Shown>
tested chemical

>  <TestSubstance_ChemicalName>
Proresid

>  <TestSubstance_CASRN>
1508-45-8

>  <TestSubstance_Description>
single chemical compound

>  <ChemicalNote>
stereochem

>  <STRUCTURE_ChemicalName_IUPAC>
(5R,6R,7R,8R)-N'-ethyl-8-hydroxy-7-(hydroxymethyl)-5-[3,4,5-tris(methyloxy)phenyl]-5,6,7,8-tetrahydronaphtho[2,3-d][1,3]dioxole-6-carbohydrazide

>  <STRUCTURE_SMILES>
c12[C@H]([C@@H](C(=O)NNCC)[C@@H]([C@H](c1cc3c(c2)OCO3)O)CO)c4cc(c(c(c4)OC)OC)OC

>  <STRUCTURE_Parent_SMILES>
c12[C@H]([C@@H](C(=O)NNCC)[C@@H]([C@H](c1cc3c(c2)OCO3)O)CO)c4cc(c(c(c4)OC)OC)OC

>  <STRUCTURE_InChI>
InChI=1/C24H30N2O8/c1-5-25-26-24(29)21-15(10-27)22(28)14-9-17-16(33-11-34-17)8-13(14)20(21)12-6-18(30-2)23(32-4)19(7-12)31-3/h6-9,15,20-22,25,27-28H,5,10-11H2,1-4H3,(H,26,29)/t15-,20+,21-,22-/m0/s1/f/h26H

>  <STRUCTURE_InChIKey>
CPTIBDHUFVHUJK-NPFIBQQBDG

>  <StudyType>
Carcinogenicity

>  <Endpoint>
TD50; Tumor Target Sites

>  <Species>
rat

>  <ActivityScore_CPDBAS_Rat>
0

>  <TD50_Rat_Note>
no positive results

>  <TargetSites_Rat_Male>
no positive results

>  <ActivityOutcome_CPDBAS_Rat>
inactive

>  <ActivityOutcome_CPDBAS_SingleCellCall>
inactive

>  <ChemicalPage_URL>
http://potency.berkeley.edu/chempages/PRORESID.html

$$$$



 11 11  0  0  0  0  0  0  0  0999 V2000
    1.9925   -2.3037    0.0000 C   0  0  0  0  0  0  0  0  0  0  0  0
    2.6567   -1.1488    0.0000 C   0  0  0  0  0  0  0  0  0  0  0  0
    3.9910   -1.1488    0.0000 C   0  0  0  0  0  0  0  0  0  0  0  0
    4.6552   -2.3037    0.0000 C   0  0  0  0  0  0  0  0  0  0  0  0
    5.9835   -2.3037    0.0000 O   0  0  0  0  0  0  0  0  0  0  0  0
    3.9910   -3.4525    0.0000 C   0  0  0  0  0  0  0  0  0  0  0  0
    2.6567   -3.4525    0.0000 C   0  0  0  0  0  0  0  0  0  0  0  0
    4.6552    0.0000    0.0000 O   0  0  0  0  0  0  0  0  0  0  0  0
    0.6642   -2.3037    0.0000 C   0  0  0  0  0  0  0  0  0  0  0  0
    0.0000   -3.4525    0.0000 O   0  0  0  0  0  0  0  0  0  0  0  0
    0.0000   -1.1488    0.0000 O   0  0  0  0  0  0  0  0  0  0  0  0
  1  2  2  0  0  0  0
  1  7  1  0  0  0  0
  1  9  1  0  0  0  0
  2  3  1  0  0  0  0
  3  4  2  0  0  0  0
  3  8  1  0  0  0  0
  4  5  1  0  0  0  0
  4  6  1  0  0  0  0
  6  7  2  0  0  0  0
  9 10  1  0  0  0  0
  9 11  2  0  0  0  0
M  END
>  <DSSTox_RID>
21212

>  <DSSTox_CID>
1212

>  <DSSTox_Generic_SID>
21212

>  <DSSTox_FileID>
1270_CPDBAS_v5d

>  <STRUCTURE_Formula>
C7H6O4

>  <STRUCTURE_MolecularWeight>
154.122

>  <STRUCTURE_ChemicalType>
defined organic

>  <STRUCTURE_TestedForm_DefinedOrganic>
parent

>  <STRUCTURE_Shown>
tested chemical

>  <TestSubstance_ChemicalName>
Protocatechuic acid

>  <TestSubstance_CASRN>
99-50-3

>  <TestSubstance_Description>
single chemical compound

>  <STRUCTURE_ChemicalName_IUPAC>
3,4-dihydroxybenzoic acid

>  <STRUCTURE_SMILES>
C1(=CC(=C(O)C=C1)O)C(O)=O

>  <STRUCTURE_Parent_SMILES>
C1(=CC(=C(O)C=C1)O)C(O)=O

>  <STRUCTURE_InChI>
InChI=1/C7H6O4/c8-5-2-1-4(7(10)11)3-6(5)9/h1-3,8-9H,(H,10,11)/f/h10H

>  <STRUCTURE_InChIKey>
YQUVCSBJEUQKSH-KZFATGLACZ

>  <StudyType>
Carcinogenicity

>  <Endpoint>
TD50; Tumor Target Sites

>  <Species>
rat; hamster

>  <ActivityScore_CPDBAS_Rat>
0

>  <TD50_Rat_Note>
no positive results

>  <TargetSites_Rat_Male>
no positive results

>  <ActivityOutcome_CPDBAS_Rat>
inactive

>  <ActivityScore_CPDBAS_Hamster>
0

>  <TD50_Hamster_Note>
no positive results

>  <TargetSites_Hamster_Female>
no positive results

>  <ActivityOutcome_CPDBAS_Hamster>
inactive

>  <ActivityOutcome_CPDBAS_SingleCellCall>
inactive

>  <Note_CPDBAS>
TD50_Hamster added v5a; TargetSites_Hamster_Female added v5a

>  <ChemicalPage_URL>
http://potency.berkeley.edu/chempages/PROTOCATECHUIC%20ACID.html

$$$$



 19 21  0  0  0  0  0  0  0  0999 V2000
    4.6079   -3.3329    0.0000 C   0  0  0  0  0  0  0  0  0  0  0  0
    4.6079   -2.0013    0.0000 C   0  0  0  0  0  0  0  0  0  0  0  0
    3.4620   -3.9865    0.0000 C   0  0  0  0  0  0  0  0  0  0  0  0
    3.4620   -1.3315    0.0000 C   0  0  0  0  0  0  0  0  0  0  0  0
    2.3080   -3.3329    0.0000 C   0  0  0  0  0  0  0  0  0  0  0  0
    2.3080   -2.0013    0.0000 C   0  0  0  0  0  0  0  0  0  0  0  0
    5.7458   -3.9865    0.0000 C   0  0  0  0  0  0  0  0  0  0  0  0
    5.7458   -1.3315    0.0000 C   0  0  0  0  0  0  0  0  0  0  0  0
    6.8998   -3.3329    0.0000 C   0  0  0  0  0  0  0  0  0  0  0  0
    6.8998   -2.0013    0.0000 C   0  0  0  0  0  0  0  0  0  0  0  0
    3.4620    0.0000    0.0000 O   0  0  0  0  0  0  0  0  0  0  0  0
    3.4620   -5.3181    0.0000 O   0  0  0  0  0  0  0  0  0  0  0  0
    5.7458   -5.3181    0.0000 O   0  0  0  0  0  0  0  0  0  0  0  0
    5.7458    0.0000    0.0000 O   0  0  0  0  0  0  0  0  0  0  0  0
    8.0699   -1.3154    0.0000 O   0  0  0  0  0  0  0  0  0  0  0  0
    1.1540   -3.9865    0.0000 C   0  0  0  0  0  0  0  0  0  0  0  0
    1.1540   -1.3315    0.0000 C   0  0  0  0  0  0  0  0  0  0  0  0
    0.0000   -2.0013    0.0000 C   0  0  0  0  0  0  0  0  0  0  0  0
    0.0000   -3.3329    0.0000 C   0  0  0  0  0  0  0  0  0  0  0  0
  1  2  2  0  0  0  0
  1  3  1  0  0  0  0
  1  7  1  0  0  0  0
  2  4  1  0  0  0  0
  2  8  1  0  0  0  0
  3  5  1  0  0  0  0
  3 12  2  0  0  0  0
  4 11  2  0  0  0  0
  4  6  1  0  0  0  0
  5  6  2  0  0  0  0
  5 16  1  0  0  0  0
  6 17  1  0  0  0  0
  7  9  2  0  0  0  0
  7 13  1  0  0  0  0
  8 14  1  0  0  0  0
  8 10  2  0  0  0  0
  9 10  1  0  0  0  0
 10 15  1  0  0  0  0
 16 19  2  0  0  0  0
 17 18  2  0  0  0  0
 18 19  1  0  0  0  0
M  END
>  <DSSTox_RID>
21214

>  <DSSTox_CID>
1214

>  <DSSTox_Generic_SID>
21214

>  <DSSTox_FileID>
1272_CPDBAS_v5d

>  <STRUCTURE_Formula>
C14H8O5

>  <STRUCTURE_MolecularWeight>
256.2103

>  <STRUCTURE_ChemicalType>
defined organic

>  <STRUCTURE_TestedForm_DefinedOrganic>
parent

>  <STRUCTURE_Shown>
tested chemical

>  <TestSubstance_ChemicalName>
Purpurin

>  <TestSubstance_CASRN>
81-54-9

>  <TestSubstance_Description>
single chemical compound

>  <STRUCTURE_ChemicalName_IUPAC>
1,2,4-trihydroxyanthracene-9,10-dione

>  <STRUCTURE_SMILES>
O=C2c1ccccc1C(=O)c3c2c(O)cc(O)c3O

>  <STRUCTURE_Parent_SMILES>
O=C2c1ccccc1C(=O)c3c2c(O)cc(O)c3O

>  <STRUCTURE_InChI>
InChI=1/C14H8O5/c15-8-5-9(16)14(19)11-10(8)12(17)6-3-1-2-4-7(6)13(11)18/h1-5,15-16,19H

>  <STRUCTURE_InChIKey>
BBNQQADTFFCFGB-UHFFFAOYAW

>  <StudyType>
Carcinogenicity

>  <Endpoint>
TD50; Tumor Target Sites

>  <Species>
rat

>  <TD50_Rat_mg>
678

>  <TD50_Rat_mmol>
2.65

>  <ActivityScore_CPDBAS_Rat>
21

>  <TargetSites_Rat_Male>
urinary bladder

>  <ActivityOutcome_CPDBAS_Rat>
active

>  <ActivityOutcome_CPDBAS_SingleCellCall>
active

>  <Note_CPDBAS>
Rat added v2a

>  <ChemicalPage_URL>
http://potency.berkeley.edu/chempages/PURPURIN.html

$$$$



  9  9  0  0  0  0  0  0  0  0999 V2000
    0.0000   -2.3037    0.0000 N   0  0  0  0  0  0  0  0  0  0  0  0
    0.6655   -1.1542    0.0000 C   0  0  0  0  0  0  0  0  0  0  0  0
    0.0000    0.0000    0.0000 O   0  0  0  0  0  0  0  0  0  0  0  0
    1.9965   -1.1542    0.0000 C   0  0  0  0  0  0  0  0  0  0  0  0
    2.6574    0.0000    0.0000 N   0  0  0  0  0  0  0  0  0  0  0  0
    3.9884    0.0000    0.0000 C   0  0  0  0  0  0  0  0  0  0  0  0
    4.6539   -1.1542    0.0000 C   0  0  0  0  0  0  0  0  0  0  0  0
    3.9884   -2.3037    0.0000 N   0  0  0  0  0  0  0  0  0  0  0  0
    2.6574   -2.3037    0.0000 C   0  0  0  0  0  0  0  0  0  0  0  0
  1  2  1  0  0  0  0
  2  3  2  0  0  0  0
  2  4  1  0  0  0  0
  4  5  2  0  0  0  0
  4  9  1  0  0  0  0
  5  6  1  0  0  0  0
  6  7  2  0  0  0  0
  7  8  1  0  0  0  0
  8  9  2  0  0  0  0
M  END
>  <DSSTox_RID>
21215

>  <DSSTox_CID>
1215

>  <DSSTox_Generic_SID>
21215

>  <DSSTox_FileID>
1273_CPDBAS_v5d

>  <STRUCTURE_Formula>
C5H5N3O

>  <STRUCTURE_MolecularWeight>
123.1127

>  <STRUCTURE_ChemicalType>
defined organic

>  <STRUCTURE_TestedForm_DefinedOrganic>
parent

>  <STRUCTURE_Shown>
tested chemical

>  <TestSubstance_ChemicalName>
Pyrazinamide

>  <TestSubstance_CASRN>
98-96-4

>  <TestSubstance_Description>
single chemical compound

>  <STRUCTURE_ChemicalName_IUPAC>
pyrazine-2-carboxamide

>  <STRUCTURE_SMILES>
NC(=O)C1=NC=CN=C1

>  <STRUCTURE_Parent_SMILES>
NC(=O)C1=NC=CN=C1

>  <STRUCTURE_InChI>
InChI=1/C5H5N3O/c6-5(9)4-3-7-1-2-8-4/h1-3H,(H2,6,9)/f/h6H2

>  <STRUCTURE_InChIKey>
IPEHBUMCGVEMRF-MDVJYLRGCE

>  <StudyType>
Carcinogenicity

>  <Endpoint>
TD50; Tumor Target Sites

>  <Species>
rat; mouse

>  <ActivityOutcome_CPDBAS_Mutagenicity>
inactive

>  <ActivityScore_CPDBAS_Rat>
0

>  <TD50_Rat_Note>
no positive results

>  <TargetSites_Rat_Male>
no positive results

>  <TargetSites_Rat_Female>
no positive results

>  <ActivityOutcome_CPDBAS_Rat>
inactive

>  <ActivityScore_CPDBAS_Mouse>
0

>  <TD50_Mouse_Note>
no positive results

>  <TargetSites_Mouse_Male>
no positive results

>  <TargetSites_Mouse_Female>
NTP bioassay inadequate

>  <ActivityOutcome_CPDBAS_Mouse>
inactive

>  <ActivityOutcome_CPDBAS_SingleCellCall>
inactive

>  <ActivityOutcome_CPDBAS_MultiCellCall>
inactive

>  <ActivityOutcome_CPDBAS_MultiCellCall_Details>
multisex inactive; multispecies inactive

>  <NTP_TechnicalReport>
TR 48

>  <ChemicalPage_URL>
http://potency.berkeley.edu/chempages/PYRAZINAMIDE.html

$$$$



  6  6  0  0  0  0  0  0  0  0999 V2000
    2.3036   -1.9950    0.0000 N   0  0  0  0  0  0  0  0  0  0  0  0
    1.1518   -2.6600    0.0000 C   0  0  0  0  0  0  0  0  0  0  0  0
    0.0000   -1.9950    0.0000 C   0  0  0  0  0  0  0  0  0  0  0  0
    0.0000   -0.6650    0.0000 C   0  0  0  0  0  0  0  0  0  0  0  0
    1.1518    0.0000    0.0000 C   0  0  0  0  0  0  0  0  0  0  0  0
    2.3036   -0.6650    0.0000 C   0  0  0  0  0  0  0  0  0  0  0  0
  1  2  2  0  0  0  0
  1  6  1  0  0  0  0
  2  3  1  0  0  0  0
  3  4  2  0  0  0  0
  4  5  1  0  0  0  0
  5  6  2  0  0  0  0
M  END
>  <DSSTox_RID>
40824

>  <DSSTox_CID>
1924

>  <DSSTox_Generic_SID>
21924

>  <DSSTox_FileID>
1274_CPDBAS_v5d

>  <STRUCTURE_Formula>
C5H5N

>  <STRUCTURE_MolecularWeight>
79.0999

>  <STRUCTURE_ChemicalType>
defined organic

>  <STRUCTURE_TestedForm_DefinedOrganic>
parent

>  <STRUCTURE_Shown>
tested chemical

>  <TestSubstance_ChemicalName>
Pyridine

>  <TestSubstance_CASRN>
110-86-1

>  <TestSubstance_Description>
single chemical compound

>  <STRUCTURE_ChemicalName_IUPAC>
pyridine

>  <STRUCTURE_SMILES>
N1=CC=CC=C1

>  <STRUCTURE_Parent_SMILES>
N1=CC=CC=C1

>  <STRUCTURE_InChI>
InChI=1/C5H5N/c1-2-4-6-5-3-1/h1-5H

>  <STRUCTURE_InChIKey>
JUJWROOIHBZHMG-UHFFFAOYAY

>  <StudyType>
Carcinogenicity

>  <Endpoint>
TD50; Tumor Target Sites

>  <Species>
rat; mouse

>  <ActivityOutcome_CPDBAS_Mutagenicity>
inactive

>  <TD50_Rat_mg>
67.3

>  <TD50_Rat_mmol>
0.851

>  <ActivityScore_CPDBAS_Rat>
26

>  <TargetSites_Rat_Male>
kidney

>  <TargetSites_Rat_Female>
no positive results

>  <ActivityOutcome_CPDBAS_Rat>
active

>  <TD50_Mouse_mg>
24.4

>  <TD50_Mouse_mmol>
0.308

>  <ActivityScore_CPDBAS_Mouse>
34

>  <TD50_Mouse_Note>
TD50 is harmonic mean of more than one positive test

>  <TargetSites_Mouse_Male>
liver

>  <TargetSites_Mouse_Female>
liver

>  <ActivityOutcome_CPDBAS_Mouse>
active

>  <ActivityOutcome_CPDBAS_SingleCellCall>
active

>  <ActivityOutcome_CPDBAS_MultiCellCall>
active

>  <ActivityOutcome_CPDBAS_MultiCellCall_Details>
multisite active; multisex active; multispecies active

>  <Note_CPDBAS>
Rat added v5a; Mouse added v5a; Mutagenicity_SAL_CPDB added v5a; chemical added v5a

>  <ChemicalPage_URL>
http://potency.berkeley.edu/chempages/PYRIDINE.html

$$$$



 17 18  0  0  0  0  0  0  0  0999 V2000
    4.6046    0.0000    0.0000 N   0  0  0  0  0  0  0  0  0  0  0  0
    3.4595   -0.6613    0.0000 C   0  0  0  0  0  0  0  0  0  0  0  0
    3.4595   -1.9918    0.0000 C   0  0  0  0  0  0  0  0  0  0  0  0
    2.3063   -2.6611    0.0000 C   0  0  0  0  0  0  0  0  0  0  0  0
    1.1532   -1.9918    0.0000 N   0  0  0  0  0  0  0  0  0  0  0  0
    1.1532   -0.6613    0.0000 C   0  0  0  0  0  0  0  0  0  0  0  0
    2.3063    0.0000    0.0000 N   0  0  0  0  0  0  0  0  0  0  0  0
    0.0000    0.0000    0.0000 N   0  0  0  0  0  0  0  0  0  0  0  0
    2.3063   -3.9917    0.0000 C   0  0  0  0  0  0  0  0  0  0  0  0
    1.1532   -4.6530    0.0000 C   0  0  0  0  0  0  0  0  0  0  0  0
    4.6046   -2.6611    0.0000 C   0  0  0  0  0  0  0  0  0  0  0  0
    5.7578   -1.9918    0.0000 C   0  0  0  0  0  0  0  0  0  0  0  0
    6.9109   -2.6611    0.0000 C   0  0  0  0  0  0  0  0  0  0  0  0
    6.9109   -3.9917    0.0000 C   0  0  0  0  0  0  0  0  0  0  0  0
    5.7578   -4.6530    0.0000 C   0  0  0  0  0  0  0  0  0  0  0  0
    4.6046   -3.9917    0.0000 C   0  0  0  0  0  0  0  0  0  0  0  0
    8.0641   -4.6530    0.0000 Cl  0  0  0  0  0  0  0  0  0  0  0  0
  1  2  1  0  0  0  0
  2  3  2  0  0  0  0
  2  7  1  0  0  0  0
  3  4  1  0  0  0  0
  3 11  1  0  0  0  0
  4  5  2  0  0  0  0
  4  9  1  0  0  0  0
  5  6  1  0  0  0  0
  6  7  2  0  0  0  0
  6  8  1  0  0  0  0
  9 10  1  0  0  0  0
 11 12  2  0  0  0  0
 11 16  1  0  0  0  0
 12 13  1  0  0  0  0
 13 14  2  0  0  0  0
 14 15  1  0  0  0  0
 14 17  1  0  0  0  0
 15 16  2  0  0  0  0
M  END
>  <DSSTox_RID>
21217

>  <DSSTox_CID>
1217

>  <DSSTox_Generic_SID>
21217

>  <DSSTox_FileID>
1276_CPDBAS_v5d

>  <STRUCTURE_Formula>
C12H13ClN4

>  <STRUCTURE_MolecularWeight>
248.7114

>  <STRUCTURE_ChemicalType>
defined organic

>  <STRUCTURE_TestedForm_DefinedOrganic>
parent

>  <STRUCTURE_Shown>
tested chemical

>  <TestSubstance_ChemicalName>
Pyrimethamine

>  <TestSubstance_CASRN>
58-14-0

>  <TestSubstance_Description>
single chemical compound

>  <STRUCTURE_ChemicalName_IUPAC>
5-(4-chlorophenyl)-6-ethylpyrimidine-2,4-diamine

>  <STRUCTURE_SMILES>
NC1=C(C(=NC(=N1)N)CC)C2=CC=C(C=C2)Cl

>  <STRUCTURE_Parent_SMILES>
NC1=C(C(=NC(=N1)N)CC)C2=CC=C(C=C2)Cl

>  <STRUCTURE_InChI>
InChI=1/C12H13ClN4/c1-2-9-10(11(14)17-12(15)16-9)7-3-5-8(13)6-4-7/h3-6H,2H2,1H3,(H4,14,15,16,17)/f/h14-15H2

>  <STRUCTURE_InChIKey>
WKSAUQYGYAYLPV-KHCWMJRFCQ

>  <StudyType>
Carcinogenicity

>  <Endpoint>
TD50; Tumor Target Sites

>  <Species>
rat; mouse

>  <ActivityOutcome_CPDBAS_Mutagenicity>
inactive

>  <ActivityScore_CPDBAS_Rat>
0

>  <TD50_Rat_Note>
no positive results

>  <TargetSites_Rat_Male>
no positive results

>  <TargetSites_Rat_Female>
no positive results

>  <ActivityOutcome_CPDBAS_Rat>
inactive

>  <ActivityScore_CPDBAS_Mouse>
0

>  <TD50_Mouse_Note>
no positive results

>  <TargetSites_Mouse_Male>
NTP bioassay inadequate

>  <TargetSites_Mouse_Female>
no positive results

>  <ActivityOutcome_CPDBAS_Mouse>
inactive

>  <ActivityOutcome_CPDBAS_SingleCellCall>
inactive

>  <ActivityOutcome_CPDBAS_MultiCellCall>
inactive

>  <ActivityOutcome_CPDBAS_MultiCellCall_Details>
multisex inactive; multispecies inactive

>  <NTP_TechnicalReport>
TR 77

>  <ChemicalPage_URL>
http://potency.berkeley.edu/chempages/PYRIMETHAMINE.html

$$$$



 22 24  0  0  0  0  0  0  0  0999 V2000
    4.6008    0.0000    0.0000 O   0  0  0  0  0  0  0  0  0  0  0  0
    4.6008   -1.3264    0.0000 C   0  0  0  0  0  0  0  0  0  0  0  0
    3.4506   -1.9895    0.0000 C   0  0  0  0  0  0  0  0  0  0  0  0
    3.4506   -3.3159    0.0000 C   0  0  0  0  0  0  0  0  0  0  0  0
    2.3004   -3.9894    0.0000 C   0  0  0  0  0  0  0  0  0  0  0  0
    1.1502   -3.3159    0.0000 C   0  0  0  0  0  0  0  0  0  0  0  0
    1.1502   -1.9895    0.0000 C   0  0  0  0  0  0  0  0  0  0  0  0
    2.3004   -1.3264    0.0000 C   0  0  0  0  0  0  0  0  0  0  0  0
    2.3004    0.0000    0.0000 O   0  0  0  0  0  0  0  0  0  0  0  0
    0.0000   -3.9894    0.0000 O   0  0  0  0  0  0  0  0  0  0  0  0
    4.6008   -3.9894    0.0000 O   0  0  0  0  0  0  0  0  0  0  0  0
    5.7614   -3.3159    0.0000 C   0  0  0  0  0  0  0  0  0  0  0  0
    5.7614   -1.9895    0.0000 C   0  0  0  0  0  0  0  0  0  0  0  0
    6.9115   -1.3264    0.0000 O   0  0  0  0  0  0  0  0  0  0  0  0
    6.9115   -3.9894    0.0000 C   0  0  0  0  0  0  0  0  0  0  0  0
    8.0617   -3.3159    0.0000 C   0  0  0  0  0  0  0  0  0  0  0  0
    9.2119   -3.9894    0.0000 C   0  0  0  0  0  0  0  0  0  0  0  0
    9.2119   -5.3158    0.0000 C   0  0  0  0  0  0  0  0  0  0  0  0
    8.0617   -5.9790    0.0000 C   0  0  0  0  0  0  0  0  0  0  0  0
    6.9115   -5.3158    0.0000 C   0  0  0  0  0  0  0  0  0  0  0  0
   10.3621   -5.9790    0.0000 O   0  0  0  0  0  0  0  0  0  0  0  0
   10.3621   -3.3159    0.0000 O   0  0  0  0  0  0  0  0  0  0  0  0
  1  2  2  0  0  0  0
  2  3  1  0  0  0  0
  2 13  1  0  0  0  0
  3  4  2  0  0  0  0
  3  8  1  0  0  0  0
  4  5  1  0  0  0  0
  4 11  1  0  0  0  0
  5  6  2  0  0  0  0
  6  7  1  0  0  0  0
  6 10  1  0  0  0  0
  7  8  2  0  0  0  0
  8  9  1  0  0  0  0
 11 12  1  0  0  0  0
 12 13  2  0  0  0  0
 12 15  1  0  0  0  0
 13 14  1  0  0  0  0
 15 16  2  0  0  0  0
 15 20  1  0  0  0  0
 16 17  1  0  0  0  0
 17 18  2  0  0  0  0
 17 22  1  0  0  0  0
 18 19  1  0  0  0  0
 18 21  1  0  0  0  0
 19 20  2  0  0  0  0
M  END
>  <DSSTox_RID>
21218

>  <DSSTox_CID>
1218

>  <DSSTox_Generic_SID>
21218

>  <DSSTox_FileID>
1277_CPDBAS_v5d

>  <STRUCTURE_Formula>
C15H10O7

>  <STRUCTURE_MolecularWeight>
302.2357

>  <STRUCTURE_ChemicalType>
defined organic

>  <STRUCTURE_TestedForm_DefinedOrganic>
parent

>  <STRUCTURE_Shown>
tested chemical

>  <TestSubstance_ChemicalName>
Quercetin

>  <TestSubstance_CASRN>
117-39-5

>  <TestSubstance_Description>
single chemical compound

>  <STRUCTURE_ChemicalName_IUPAC>
2-(3,4-dihydroxyphenyl)-3,5,7-trihydroxy-4H-chromen-4-one

>  <STRUCTURE_SMILES>
O=C1C2=C(C=C(C=C2O)O)OC(=C1O)C3=CC(=C(C=C3)O)O

>  <STRUCTURE_Parent_SMILES>
O=C1C2=C(C=C(C=C2O)O)OC(=C1O)C3=CC(=C(C=C3)O)O

>  <STRUCTURE_InChI>
InChI=1/C15H10O7/c16-7-4-10(19)12-11(5-7)22-15(14(21)13(12)20)6-1-2-8(17)9(18)3-6/h1-5,16-19,21H

>  <STRUCTURE_InChIKey>
REFJWTPEDVJJIY-UHFFFAOYAW

>  <StudyType>
Carcinogenicity

>  <Endpoint>
TD50; Tumor Target Sites

>  <Species>
rat; mouse

>  <ActivityOutcome_CPDBAS_Mutagenicity>
active

>  <TD50_Rat_mg>
10.1

>  <TD50_Rat_mmol>
0.0334

>  <ActivityScore_CPDBAS_Rat>
41

>  <TD50_Rat_Note>
TD50 is harmonic mean of more than one positive test; greater than ten-fold variation among TD50 values for positive results

>  <TargetSites_Rat_Male>
kidney; small intestine; urinary bladder

>  <TargetSites_Rat_Female>
small intestine; urinary bladder

>  <ActivityOutcome_CPDBAS_Rat>
active

>  <ActivityScore_CPDBAS_Mouse>
0

>  <TD50_Mouse_Note>
no positive results

>  <TargetSites_Mouse_Male>
no positive results

>  <TargetSites_Mouse_Female>
no positive results

>  <ActivityOutcome_CPDBAS_Mouse>
inactive

>  <ActivityOutcome_CPDBAS_SingleCellCall>
active

>  <ActivityOutcome_CPDBAS_MultiCellCall>
active

>  <ActivityOutcome_CPDBAS_MultiCellCall_Details>
multisite active; multisex active

>  <NTP_TechnicalReport>
TR 409; final call in CPDB differs due to additional data

>  <ChemicalPage_URL>
http://potency.berkeley.edu/chempages/QUERCETIN.html

$$$$



 10 10  0  0  0  0  0  0  0  0999 V2000
    0.0000   -2.3021    0.0000 O   0  0  0  0  0  0  0  0  0  0  0  0
    0.6654   -1.1511    0.0000 N   0  0  0  0  0  0  0  0  0  0  0  0
    1.9961   -1.1511    0.0000 C   0  0  0  0  0  0  0  0  0  0  0  0
    2.6614    0.0000    0.0000 C   0  0  0  0  0  0  0  0  0  0  0  0
    3.9921    0.0000    0.0000 C   0  0  0  0  0  0  0  0  0  0  0  0
    4.6575   -1.1511    0.0000 C   0  0  0  0  0  0  0  0  0  0  0  0
    5.9882   -1.1511    0.0000 N   0  0  0  0  0  0  0  0  0  0  0  0
    6.6535   -2.3021    0.0000 O   0  0  0  0  0  0  0  0  0  0  0  0
    3.9921   -2.3021    0.0000 C   0  0  0  0  0  0  0  0  0  0  0  0
    2.6614   -2.3021    0.0000 C   0  0  0  0  0  0  0  0  0  0  0  0
  1  2  1  0  0  0  0
  2  3  2  0  0  0  0
  3  4  1  0  0  0  0
  3 10  1  0  0  0  0
  4  5  2  0  0  0  0
  5  6  1  0  0  0  0
  6  7  2  0  0  0  0
  6  9  1  0  0  0  0
  7  8  1  0  0  0  0
  9 10  2  0  0  0  0
M  END
>  <DSSTox_RID>
21222

>  <DSSTox_CID>
1222

>  <DSSTox_Generic_SID>
21222

>  <DSSTox_FileID>
1281_CPDBAS_v5d

>  <STRUCTURE_Formula>
C6H6N2O2

>  <STRUCTURE_MolecularWeight>
138.124

>  <STRUCTURE_ChemicalType>
defined organic

>  <STRUCTURE_TestedForm_DefinedOrganic>
parent

>  <STRUCTURE_Shown>
tested chemical

>  <TestSubstance_ChemicalName>
p-Quinone dioxime

>  <TestSubstance_CASRN>
105-11-3

>  <TestSubstance_Description>
single chemical compound

>  <STRUCTURE_ChemicalName_IUPAC>
1,4-benzoquinone dioxime

>  <STRUCTURE_SMILES>
ON=C1C=CC(=NO)C=C1

>  <STRUCTURE_Parent_SMILES>
ON=C1C=CC(=NO)C=C1

>  <STRUCTURE_InChI>
InChI=1/C6H6N2O2/c9-7-5-1-2-6(8-10)4-3-5/h1-4,9-10H/b7-5-,8-6-

>  <STRUCTURE_InChIKey>
LNHURPJLTHSVMU-SFECMWDFBR

>  <StudyType>
Carcinogenicity

>  <Endpoint>
TD50; Tumor Target Sites

>  <Species>
rat; mouse

>  <ActivityOutcome_CPDBAS_Mutagenicity>
active

>  <TD50_Rat_mg>
106

>  <TD50_Rat_mmol>
0.767

>  <ActivityScore_CPDBAS_Rat>
27

>  <TargetSites_Rat_Male>
no positive results

>  <TargetSites_Rat_Female>
urinary bladder

>  <ActivityOutcome_CPDBAS_Rat>
active

>  <ActivityScore_CPDBAS_Mouse>
0

>  <TD50_Mouse_Note>
no positive results

>  <TargetSites_Mouse_Male>
no positive results

>  <TargetSites_Mouse_Female>
no positive results

>  <ActivityOutcome_CPDBAS_Mouse>
inactive

>  <ActivityOutcome_CPDBAS_SingleCellCall>
active

>  <NTP_TechnicalReport>
TR 179

>  <ChemicalPage_URL>
http://potency.berkeley.edu/chempages/p-QUINONE%20DIOXIME.html

$$$$



 23 25  0  0  0  0  0  0  0  0999 V2000
    4.6031    0.0000    0.0000 O   0  0  0  0  0  0  0  0  0  0  0  0
    3.4523   -0.6635    0.0000 C   0  0  0  0  0  0  0  0  0  0  0  0
    2.3015    0.0000    0.0000 C   0  0  0  0  0  0  0  0  0  0  0  0
    1.1508   -0.6635    0.0000 C   0  0  0  0  0  0  0  0  0  0  0  0
    1.1508   -1.9905    0.0000 C   0  0  0  0  0  0  0  0  0  0  0  0
    2.3015   -2.6644    0.0000 C   0  0  0  0  0  0  0  0  0  0  0  0
    3.4523   -1.9905    0.0000 C   0  0  0  0  0  0  0  0  0  0  0  0
    4.6031   -2.6644    0.0000 N   0  0  0  0  0  0  0  0  0  0  0  0
    5.7642   -1.9905    0.0000 N   0  0  0  0  0  0  0  0  0  0  0  0
    6.9150   -2.6644    0.0000 C   0  0  0  0  0  0  0  0  0  0  0  0
    8.0658   -1.9905    0.0000 C   0  0  0  0  0  0  0  0  0  0  0  0
    9.2165   -2.6644    0.0000 C   0  0  0  0  0  0  0  0  0  0  0  0
    9.2165   -3.9914    0.0000 C   0  0  0  0  0  0  0  0  0  0  0  0
    8.0658   -4.6549    0.0000 C   0  0  0  0  0  0  0  0  0  0  0  0
    6.9150   -3.9914    0.0000 C   0  0  0  0  0  0  0  0  0  0  0  0
   10.3673   -4.6549    0.0000 C   0  0  0  0  0  0  0  0  0  0  0  0
    8.0658   -0.6635    0.0000 N   0  3  0  0  0  0  0  0  0  0  0  0
    6.9150    0.0000    0.0000 O   0  0  0  0  0  0  0  0  0  0  0  0
    9.2165    0.0000    0.0000 O   0  5  0  0  0  0  0  0  0  0  0  0
    2.3015   -3.9914    0.0000 C   0  0  0  0  0  0  0  0  0  0  0  0
    1.1508   -4.6549    0.0000 C   0  0  0  0  0  0  0  0  0  0  0  0
    0.0000   -3.9914    0.0000 C   0  0  0  0  0  0  0  0  0  0  0  0
    0.0000   -2.6644    0.0000 C   0  0  0  0  0  0  0  0  0  0  0  0
  1  2  1  0  0  0  0
  2  3  2  0  0  0  0
  2  7  1  0  0  0  0
  3  4  1  0  0  0  0
  4  5  2  0  0  0  0
  5  6  1  0  0  0  0
  5 23  1  0  0  0  0
  6  7  2  0  0  0  0
  6 20  1  0  0  0  0
  7  8  1  0  0  0  0
  8  9  2  0  0  0  0
  9 10  1  0  0  0  0
 10 11  2  0  0  0  0
 10 15  1  0  0  0  0
 11 12  1  0  0  0  0
 11 17  1  0  0  0  0
 12 13  2  0  0  0  0
 13 14  1  0  0  0  0
 13 16  1  0  0  0  0
 14 15  2  0  0  0  0
 17 18  2  0  0  0  0
 17 19  1  0  0  0  0
 20 21  2  0  0  0  0
 21 22  1  0  0  0  0
 22 23  2  0  0  0  0
M  END
>  <DSSTox_RID>
21226

>  <DSSTox_CID>
1226

>  <DSSTox_Generic_SID>
21226

>  <DSSTox_FileID>
1285_CPDBAS_v5d

>  <STRUCTURE_Formula>
C17H13N3O3

>  <STRUCTURE_MolecularWeight>
307.3034

>  <STRUCTURE_ChemicalType>
defined organic

>  <STRUCTURE_TestedForm_DefinedOrganic>
parent

>  <STRUCTURE_Shown>
tested chemical

>  <TestSubstance_ChemicalName>
C.I. pigment red 3

>  <TestSubstance_CASRN>
2425-85-6

>  <TestSubstance_Description>
single chemical compound

>  <ChemicalNote>
C.I. 12120

>  <STRUCTURE_ChemicalName_IUPAC>
1-[(E)-(4-methyl-2-nitrophenyl)diazenyl]-2-naphthol

>  <STRUCTURE_SMILES>
OC1=CC=C2C(=C1/N=N/C3=C(C=C(C=C3)C)[N+](=O)[O-])C=CC=C2

>  <STRUCTURE_Parent_SMILES>
OC1=CC=C2C(=C1/N=N/C3=C(C=C(C=C3)C)[N+](=O)[O-])C=CC=C2

>  <STRUCTURE_InChI>
InChI=1/C17H13N3O3/c1-11-6-8-14(15(10-11)20(22)23)18-19-17-13-5-3-2-4-12(13)7-9-16(17)21/h2-10,21H,1H3/b19-18+

>  <STRUCTURE_InChIKey>
ZLFVRXUOSPRRKQ-VHEBQXMUBJ

>  <StudyType>
Carcinogenicity

>  <Endpoint>
TD50; Tumor Target Sites

>  <Species>
rat; mouse

>  <ActivityOutcome_CPDBAS_Mutagenicity>
active

>  <TD50_Rat_mg>
1170

>  <TD50_Rat_mmol>
3.81

>  <ActivityScore_CPDBAS_Rat>
20

>  <TD50_Rat_Note>
TD50 is harmonic mean of more than one positive test

>  <TargetSites_Rat_Male>
adrenal gland

>  <TargetSites_Rat_Female>
liver

>  <ActivityOutcome_CPDBAS_Rat>
active

>  <TD50_Mouse_mg>
35500

>  <TD50_Mouse_mmol>
116

>  <ActivityScore_CPDBAS_Mouse>
5

>  <TargetSites_Mouse_Male>
kidney; thyroid gland

>  <TargetSites_Mouse_Female>
no positive results

>  <ActivityOutcome_CPDBAS_Mouse>
active

>  <ActivityOutcome_CPDBAS_SingleCellCall>
active

>  <ActivityOutcome_CPDBAS_MultiCellCall>
active

>  <ActivityOutcome_CPDBAS_MultiCellCall_Details>
multisite active; multisex active; multispecies active

>  <NTP_TechnicalReport>
TR 407

>  <ChemicalPage_URL>
http://potency.berkeley.edu/chempages/C.I.%20PIGMENT%20RED%203.html

$$$$



 36 39  0  0  0  0  0  0  0  0999 V2000
    1.9965   -6.9158    0.0000 O   0  5  0  0  0  0  0  0  0  0  0  0
    1.3257   -5.7658    0.0000 N   0  3  0  0  0  0  0  0  0  0  0  0
    0.0000   -5.7658    0.0000 O   0  0  0  0  0  0  0  0  0  0  0  0
    1.9965   -4.5999    0.0000 C   0  0  0  0  0  0  0  0  0  0  0  0
    1.3257   -3.4499    0.0000 C   0  0  0  0  0  0  0  0  0  0  0  0
    1.9965   -2.2999    0.0000 C   0  0  0  0  0  0  0  0  0  0  0  0
    3.3221   -2.2999    0.0000 C   0  0  0  0  0  0  0  0  0  0  0  0
    3.3221   -4.5999    0.0000 C   0  0  0  0  0  0  0  0  0  0  0  0
    3.9930   -3.4499    0.0000 C   0  0  0  0  0  0  0  0  0  0  0  0
    5.3186   -3.4499    0.0000 N   0  0  0  0  0  0  0  0  0  0  0  0
    5.9894   -2.2999    0.0000 C   0  0  0  0  0  0  0  0  0  0  0  0
    5.3186   -1.1500    0.0000 O   0  0  0  0  0  0  0  0  0  0  0  0
    7.3151   -2.2999    0.0000 C   0  0  0  0  0  0  0  0  0  0  0  0
    7.9859   -1.1500    0.0000 C   0  0  0  0  0  0  0  0  0  0  0  0
    9.3116   -1.1500    0.0000 C   0  0  0  0  0  0  0  0  0  0  0  0
    9.9824    0.0000    0.0000 C   0  0  0  0  0  0  0  0  0  0  0  0
   11.3080    0.0000    0.0000 C   0  0  0  0  0  0  0  0  0  0  0  0
   11.9789   -1.1500    0.0000 C   0  0  0  0  0  0  0  0  0  0  0  0
    9.9824   -2.2999    0.0000 C   0  0  0  0  0  0  0  0  0  0  0  0
   11.3080   -2.2999    0.0000 C   0  0  0  0  0  0  0  0  0  0  0  0
    7.9859   -3.4499    0.0000 C   0  0  0  0  0  0  0  0  0  0  0  0
    7.3151   -4.5999    0.0000 O   0  0  0  0  0  0  0  0  0  0  0  0
    9.3116   -3.4499    0.0000 C   0  0  0  0  0  0  0  0  0  0  0  0
    9.9824   -4.5999    0.0000 N   0  0  0  0  0  0  0  0  0  0  0  0
   11.3080   -4.5999    0.0000 N   0  0  0  0  0  0  0  0  0  0  0  0
   11.9789   -5.7658    0.0000 C   0  0  0  0  0  0  0  0  0  0  0  0
   13.3045   -5.7658    0.0000 C   0  0  0  0  0  0  0  0  0  0  0  0
   13.9753   -6.9158    0.0000 C   0  0  0  0  0  0  0  0  0  0  0  0
   13.3045   -8.0658    0.0000 C   0  0  0  0  0  0  0  0  0  0  0  0
   15.3010   -6.9158    0.0000 N   0  3  0  0  0  0  0  0  0  0  0  0
   15.9718   -8.0658    0.0000 O   0  5  0  0  0  0  0  0  0  0  0  0
   15.9718   -5.7658    0.0000 O   0  0  0  0  0  0  0  0  0  0  0  0
   11.3080   -6.9158    0.0000 C   0  0  0  0  0  0  0  0  0  0  0  0
    9.9824   -6.9158    0.0000 O   0  0  0  0  0  0  0  0  0  0  0  0
    9.3116   -8.0658    0.0000 C   0  0  0  0  0  0  0  0  0  0  0  0
   11.9789   -8.0658    0.0000 C   0  0  0  0  0  0  0  0  0  0  0  0
  1  2  1  0  0  0  0
  2  3  2  0  0  0  0
  2  4  1  0  0  0  0
  4  5  2  0  0  0  0
  4  8  1  0  0  0  0
  5  6  1  0  0  0  0
  6  7  2  0  0  0  0
  7  9  1  0  0  0  0
  8  9  2  0  0  0  0
  9 10  1  0  0  0  0
 10 11  1  0  0  0  0
 11 12  2  0  0  0  0
 11 13  1  0  0  0  0
 13 14  2  0  0  0  0
 13 21  1  0  0  0  0
 14 15  1  0  0  0  0
 15 16  2  0  0  0  0
 15 19  1  0  0  0  0
 16 17  1  0  0  0  0
 17 18  2  0  0  0  0
 18 20  1  0  0  0  0
 19 20  2  0  0  0  0
 19 23  1  0  0  0  0
 21 22  1  0  0  0  0
 21 23  2  0  0  0  0
 23 24  1  0  0  0  0
 24 25  2  0  0  0  0
 25 26  1  0  0  0  0
 26 27  2  0  0  0  0
 26 33  1  0  0  0  0
 27 28  1  0  0  0  0
 28 29  2  0  0  0  0
 28 30  1  0  0  0  0
 29 36  1  0  0  0  0
 30 31  1  0  0  0  0
 30 32  2  0  0  0  0
 33 34  1  0  0  0  0
 33 36  2  0  0  0  0
 34 35  1  0  0  0  0
M  END
>  <DSSTox_RID>
21227

>  <DSSTox_CID>
1227

>  <DSSTox_Generic_SID>
21227

>  <DSSTox_FileID>
1286_CPDBAS_v5d

>  <STRUCTURE_Formula>
C24H17N5O7

>  <STRUCTURE_MolecularWeight>
487.4211

>  <STRUCTURE_ChemicalType>
defined organic

>  <STRUCTURE_TestedForm_DefinedOrganic>
parent

>  <STRUCTURE_Shown>
tested chemical

>  <TestSubstance_ChemicalName>
C.I. pigment red 23

>  <TestSubstance_CASRN>
6471-49-4

>  <TestSubstance_Description>
single chemical compound

>  <ChemicalNote>
C.I. 12355

>  <STRUCTURE_ChemicalName_IUPAC>
3-hydroxy-4-{(E)-[2-(methyloxy)-5-nitrophenyl]diazenyl}-N-(3-nitrophenyl)naphthalene-2-carboxamide

>  <STRUCTURE_SMILES>
[O-][N+](=O)C1=CC=CC(=C1)NC(=O)C2=CC3=CC=CC=C3C(=C2O)/N=N/C4=CC(=CC=C4OC)[N+]([O-])=O

>  <STRUCTURE_Parent_SMILES>
[O-][N+](=O)C1=CC=CC(=C1)NC(=O)C2=CC3=CC=CC=C3C(=C2O)/N=N/C4=CC(=CC=C4OC)[N+]([O-])=O

>  <STRUCTURE_InChI>
InChI=1/C24H17N5O7/c1-36-21-10-9-17(29(34)35)13-20(21)26-27-22-18-8-3-2-5-14(18)11-19(23(22)30)24(31)25-15-6-4-7-16(12-15)28(32)33/h2-13,30H,1H3,(H,25,31)/b27-26+/f/h25H

>  <STRUCTURE_InChIKey>
SOFRHZUTPGJWAM-CYRNJINJDS

>  <StudyType>
Carcinogenicity

>  <Endpoint>
TD50; Tumor Target Sites

>  <Species>
rat; mouse

>  <ActivityOutcome_CPDBAS_Mutagenicity>
active

>  <ActivityScore_CPDBAS_Rat>
0

>  <TD50_Rat_Note>
no positive results

>  <TargetSites_Rat_Male>
no positive results

>  <TargetSites_Rat_Female>
no positive results

>  <ActivityOutcome_CPDBAS_Rat>
inactive

>  <ActivityScore_CPDBAS_Mouse>
0

>  <TD50_Mouse_Note>
no positive results

>  <TargetSites_Mouse_Male>
no positive results

>  <TargetSites_Mouse_Female>
no positive results

>  <ActivityOutcome_CPDBAS_Mouse>
inactive

>  <ActivityOutcome_CPDBAS_SingleCellCall>
inactive

>  <ActivityOutcome_CPDBAS_MultiCellCall>
inactive

>  <ActivityOutcome_CPDBAS_MultiCellCall_Details>
multisex inactive; multispecies inactive

>  <NTP_TechnicalReport>
TR 411

>  <ChemicalPage_URL>
http://potency.berkeley.edu/chempages/C.I.%20PIGMENT%20RED%2023.html

$$$$



 14 14  0  0  0  0  0  0  0  0999 V2000
    1.9969   -3.4548    0.0000 C   0  0  0  0  0  0  0  0  0  0  0  0
    2.6602   -4.6087    0.0000 C   0  0  0  0  0  0  0  0  0  0  0  0
    1.9969   -5.7557    0.0000 C   0  0  0  0  0  0  0  0  0  0  0  0
    0.6633   -5.7557    0.0000 C   0  0  0  0  0  0  0  0  0  0  0  0
    0.0000   -6.9096    0.0000 N   0  0  0  0  0  0  0  0  0  0  0  0
    0.0000   -4.6087    0.0000 C   0  0  0  0  0  0  0  0  0  0  0  0
    0.6633   -3.4548    0.0000 C   0  0  0  0  0  0  0  0  0  0  0  0
    3.9868   -4.6087    0.0000 N   0  3  0  0  0  0  0  0  0  0  0  0
    4.6571   -3.4548    0.0000 O   0  0  0  0  0  0  0  0  0  0  0  0
    4.6571   -5.7557    0.0000 O   0  5  0  0  0  0  0  0  0  0  0  0
    2.6602   -2.3009    0.0000 N   0  0  0  0  0  0  0  0  0  0  0  0
    1.9969   -1.1539    0.0000 C   0  0  0  0  0  0  0  0  0  0  0  0
    0.6633   -1.1539    0.0000 C   0  0  0  0  0  0  0  0  0  0  0  0
    0.0000    0.0000    0.0000 O   0  0  0  0  0  0  0  0  0  0  0  0
  1  2  2  0  0  0  0
  1  7  1  0  0  0  0
  1 11  1  0  0  0  0
  2  3  1  0  0  0  0
  2  8  1  0  0  0  0
  3  4  2  0  0  0  0
  4  5  1  0  0  0  0
  4  6  1  0  0  0  0
  6  7  2  0  0  0  0
  8  9  2  0  0  0  0
  8 10  1  0  0  0  0
 11 12  1  0  0  0  0
 12 13  1  0  0  0  0
 13 14  1  0  0  0  0
M  END
>  <DSSTox_RID>
21236

>  <DSSTox_CID>
1236

>  <DSSTox_Generic_SID>
21236

>  <DSSTox_FileID>
1295_CPDBAS_v5d

>  <STRUCTURE_Formula>
C8H11N3O3

>  <STRUCTURE_MolecularWeight>
197.1912

>  <STRUCTURE_ChemicalType>
defined organic

>  <STRUCTURE_TestedForm_DefinedOrganic>
parent

>  <STRUCTURE_Shown>
tested chemical

>  <TestSubstance_ChemicalName>
HC red no. 3

>  <TestSubstance_CASRN>
2871-01-4

>  <TestSubstance_Description>
single chemical compound

>  <STRUCTURE_ChemicalName_IUPAC>
2-[(4-amino-2-nitrophenyl)amino]ethanol

>  <STRUCTURE_SMILES>
C1(=C(C=C(N)C=C1)[N+](=O)[O-])NCCO

>  <STRUCTURE_Parent_SMILES>
C1(=C(C=C(N)C=C1)[N+](=O)[O-])NCCO

>  <STRUCTURE_InChI>
InChI=1/C8H11N3O3/c9-6-1-2-7(10-3-4-12)8(5-6)11(13)14/h1-2,5,10,12H,3-4,9H2

>  <STRUCTURE_InChIKey>
GZGZVOLBULPDFD-UHFFFAOYAZ

>  <StudyType>
Carcinogenicity

>  <Endpoint>
TD50; Tumor Target Sites

>  <Species>
rat; mouse

>  <ActivityOutcome_CPDBAS_Mutagenicity>
active

>  <ActivityScore_CPDBAS_Rat>
0

>  <TD50_Rat_Note>
no positive results

>  <TargetSites_Rat_Male>
no positive results

>  <TargetSites_Rat_Female>
no positive results

>  <ActivityOutcome_CPDBAS_Rat>
inactive

>  <ActivityScore_CPDBAS_Mouse>
0

>  <TD50_Mouse_Note>
no positive results

>  <TargetSites_Mouse_Male>
no positive results

>  <TargetSites_Mouse_Female>
NTP bioassay inadequate

>  <ActivityOutcome_CPDBAS_Mouse>
inactive

>  <ActivityOutcome_CPDBAS_SingleCellCall>
inactive

>  <ActivityOutcome_CPDBAS_MultiCellCall>
inactive

>  <ActivityOutcome_CPDBAS_MultiCellCall_Details>
multisex inactive; multispecies inactive

>  <NTP_TechnicalReport>
TR 281

>  <ChemicalPage_URL>
http://potency.berkeley.edu/chempages/HC%20RED%20NO.%203.html

$$$$



 47 52  0  0  1  0  0  0  0  0999 V2000
    5.4267   -2.0763    0.0000 C   0  0  0  0  0  0  0  0  0  0  0  0
    4.4043   -2.6268    0.0000 N   0  0  0  0  0  0  0  0  0  0  0  0
    5.4267   -0.7236    0.0000 C   0  0  0  0  0  0  0  0  0  0  0  0
    7.7075   -6.0402    0.0000 C   0  0  1  0  0  0  0  0  0  0  0  0
    7.7075   -4.7346    0.0000 C   0  0  2  0  0  0  0  0  0  0  0  0
    6.5750   -2.7370    0.0000 C   0  0  2  0  0  0  0  0  0  0  0  0
    7.7075   -2.0763    0.0000 N   0  0  0  0  0  0  0  0  0  0  0  0
    3.3504   -1.9347    0.0000 C   0  0  0  0  0  0  0  0  0  0  0  0
    3.3504   -0.7236    0.0000 C   0  0  0  0  0  0  0  0  0  0  0  0
    8.8401   -4.0582    0.0000 C   0  0  1  0  0  0  0  0  0  0  0  0
   10.0040   -6.0402    0.0000 C   0  0  2  0  0  0  0  0  0  0  0  0
   12.2848   -6.0244    0.0000 C   0  0  0  0  0  0  0  0  0  0  0  0
    6.5750   -4.0582    0.0000 C   0  0  0  0  0  0  0  0  0  0  0  0
    8.8401   -6.7008    0.0000 C   0  0  2  0  0  0  0  0  0  0  0  0
   12.2848   -4.7032    0.0000 C   0  0  0  0  0  0  0  0  0  0  0  0
   12.2848   -2.0449    0.0000 C   0  0  0  0  0  0  0  0  0  0  0  0
    6.5750   -6.7323    0.0000 C   0  0  0  0  0  0  0  0  0  0  0  0
   11.1366   -6.7008    0.0000 O   0  0  0  0  0  0  0  0  0  0  0  0
    8.8401   -2.7370    0.0000 C   0  0  0  0  0  0  0  0  0  0  0  0
   11.1208   -2.7055    0.0000 C   0  0  0  0  0  0  0  0  0  0  0  0
   13.4331   -2.7055    0.0000 C   0  0  0  0  0  0  0  0  0  0  0  0
   10.0040   -4.7346    0.0000 C   0  0  0  0  0  0  0  0  0  0  0  0
    6.5750   -0.0629    0.0000 C   0  0  0  0  0  0  0  0  0  0  0  0
   11.1208   -4.0268    0.0000 C   0  0  0  0  0  0  0  0  0  0  0  0
   13.4331   -4.0268    0.0000 C   0  0  0  0  0  0  0  0  0  0  0  0
    2.2021   -2.6740    0.0000 C   0  0  0  0  0  0  0  0  0  0  0  0
    2.2021    0.0000    0.0000 C   0  0  0  0  0  0  0  0  0  0  0  0
    7.7075   -0.7236    0.0000 C   0  0  0  0  0  0  0  0  0  0  0  0
   13.4331   -6.6851    0.0000 O   0  0  0  0  0  0  0  0  0  0  0  0
    5.4267   -6.0716    0.0000 O   0  0  0  0  0  0  0  0  0  0  0  0
    1.0853   -2.0134    0.0000 C   0  0  0  0  0  0  0  0  0  0  0  0
   12.2848   -0.7078    0.0000 O   0  0  0  0  0  0  0  0  0  0  0  0
    1.0853   -0.6606    0.0000 C   0  0  0  0  0  0  0  0  0  0  0  0
    8.8401   -8.0378    0.0000 O   0  0  0  0  0  0  0  0  0  0  0  0
    6.5750   -8.0378    0.0000 O   0  0  0  0  0  0  0  0  0  0  0  0
    9.9726   -2.0449    0.0000 O   0  0  0  0  0  0  0  0  0  0  0  0
   14.5814   -2.0449    0.0000 O   0  0  0  0  0  0  0  0  0  0  0  0
    0.0000   -2.7684    0.0000 O   0  0  0  0  0  0  0  0  0  0  0  0
   13.4331   -0.0315    0.0000 C   0  0  0  0  0  0  0  0  0  0  0  0
   10.0040   -8.7142    0.0000 C   0  0  0  0  0  0  0  0  0  0  0  0
    9.9726   -0.7078    0.0000 C   0  0  0  0  0  0  0  0  0  0  0  0
   15.7296   -2.7055    0.0000 C   0  0  0  0  0  0  0  0  0  0  0  0
    7.7075   -8.7142    0.0000 C   0  0  0  0  0  0  0  0  0  0  0  0
    0.0000   -4.1212    0.0000 C   0  0  0  0  0  0  0  0  0  0  0  0
    7.7547   -3.4291    0.0000 H   0  0  0  0  0  0  0  0  0  0  0  0
    8.8558   -5.2694    0.0000 H   0  0  0  0  0  0  0  0  0  0  0  0
    6.5907   -1.5415    0.0000 H   0  0  0  0  0  0  0  0  0  0  0  0
  1  2  1  0  0  0  0
  1  3  2  0  0  0  0
  1  6  1  0  0  0  0
  2  8  1  0  0  0  0
  3  9  1  0  0  0  0
  3 23  1  0  0  0  0
  4  5  1  0  0  0  0
  4 14  1  0  0  0  0
  4 17  1  1  0  0  0
  5 13  1  0  0  0  0
  5 10  1  0  0  0  0
  5 45  1  6  0  0  0
  6  7  1  0  0  0  0
  6 13  1  0  0  0  0
  6 47  1  1  0  0  0
  7 19  1  0  0  0  0
  7 28  1  0  0  0  0
  8 26  1  0  0  0  0
  8  9  2  0  0  0  0
  9 27  1  0  0  0  0
 10 22  1  0  0  0  0
 10 46  1  6  0  0  0
 10 19  1  0  0  0  0
 11 22  1  0  0  0  0
 11 18  1  1  0  0  0
 11 14  1  0  0  0  0
 12 18  1  0  0  0  0
 12 15  1  0  0  0  0
 12 29  2  0  0  0  0
 14 34  1  6  0  0  0
 15 24  2  0  0  0  0
 15 25  1  0  0  0  0
 16 21  1  0  0  0  0
 16 32  1  0  0  0  0
 16 20  2  0  0  0  0
 17 30  2  0  0  0  0
 17 35  1  0  0  0  0
 20 24  1  0  0  0  0
 20 36  1  0  0  0  0
 21 25  2  0  0  0  0
 21 37  1  0  0  0  0
 23 28  1  0  0  0  0
 26 31  2  0  0  0  0
 27 33  2  0  0  0  0
 31 38  1  0  0  0  0
 31 33  1  0  0  0  0
 32 39  1  0  0  0  0
 34 40  1  0  0  0  0
 35 43  1  0  0  0  0
 36 41  1  0  0  0  0
 37 42  1  0  0  0  0
 38 44  1  0  0  0  0
M  END
>  <DSSTox_RID>
21237

>  <DSSTox_CID>
1237

>  <DSSTox_Generic_SID>
21237

>  <DSSTox_FileID>
1296_CPDBAS_v5d

>  <STRUCTURE_Formula>
C33H40N2O9

>  <STRUCTURE_MolecularWeight>
608.6787

>  <STRUCTURE_ChemicalType>
defined organic

>  <STRUCTURE_TestedForm_DefinedOrganic>
parent

>  <STRUCTURE_Shown>
tested chemical

>  <TestSubstance_ChemicalName>
Reserpine

>  <TestSubstance_CASRN>
50-55-5

>  <TestSubstance_Description>
single chemical compound

>  <ChemicalNote>
stereochem

>  <STRUCTURE_ChemicalName_IUPAC>
methyl (3beta,16beta,17alpha,18beta,20alpha)-11,17-bis(methyloxy)-18-({[3,4,5-tris(methyloxy)phenyl]carbonyl}oxy)yohimban-16-carboxylate

>  <STRUCTURE_SMILES>
O=C(C4=CC(OC)=C(OC)C(OC)=C4)O[C@@H]1C[C@@]3([H])[C@@](C[C@](N5C3)([H])C2=C(CC5)C(C=C6)=C(C=C6OC)N2)([H])[C@H]([C@](OC)=O)[C@H]1OC

>  <STRUCTURE_Parent_SMILES>
O=C(C4=CC(OC)=C(OC)C(OC)=C4)O[C@@H]1C[C@@]3([H])[C@@](C[C@](N5C3)([H])C2=C(CC5)C(C=C6)=C(C=C6OC)N2)([H])[C@H]([C@](OC)=O)[C@H]1OC

>  <STRUCTURE_InChI>
InChI=1/C33H40N2O9/c1-38-19-7-8-20-21-9-10-35-16-18-13-27(44-32(36)17-11-25(39-2)30(41-4)26(12-17)40-3)31(42-5)28(33(37)43-6)22(18)15-24(35)29(21)34-23(20)14-19/h7-8,11-12,14,18,22,24,27-28,31,34H,9-10,13,15-16H2,1-6H3/t18-,22+,24-,27-,28+,31+/m1/s1

>  <STRUCTURE_InChIKey>
QEVHRUUCFGRFIF-MDEJGZGSBW

>  <StudyType>
Carcinogenicity

>  <Endpoint>
TD50; Tumor Target Sites

>  <Species>
rat; mouse

>  <ActivityOutcome_CPDBAS_Mutagenicity>
inactive

>  <TD50_Rat_mg>
0.306

>  <TD50_Rat_mmol>
0.000503

>  <ActivityScore_CPDBAS_Rat>
60

>  <TargetSites_Rat_Male>
adrenal gland

>  <TargetSites_Rat_Female>
no positive results

>  <ActivityOutcome_CPDBAS_Rat>
active

>  <TD50_Mouse_mg>
5.02

>  <TD50_Mouse_mmol>
0.00825

>  <ActivityScore_CPDBAS_Mouse>
52

>  <TD50_Mouse_Note>
TD50 is harmonic mean of more than one positive test

>  <TargetSites_Mouse_Male>
testes

>  <TargetSites_Mouse_Female>
mammary gland

>  <ActivityOutcome_CPDBAS_Mouse>
active

>  <ActivityOutcome_CPDBAS_SingleCellCall>
active

>  <ActivityOutcome_CPDBAS_MultiCellCall>
active

>  <ActivityOutcome_CPDBAS_MultiCellCall_Details>
multisite active; multisex active; multispecies active

>  <Note_CPDBAS>
structure modified v5b

>  <NTP_TechnicalReport>
TR 193

>  <ChemicalPage_URL>
http://potency.berkeley.edu/chempages/RESERPINE.html

$$$$



  8  8  0  0  0  0  0  0  0  0999 V2000
    4.6080   -2.6588    0.0000 O   0  0  0  0  0  0  0  0  0  0  0  0
    3.4560   -1.9953    0.0000 C   0  0  0  0  0  0  0  0  0  0  0  0
    2.3040   -2.6588    0.0000 C   0  0  0  0  0  0  0  0  0  0  0  0
    1.1520   -1.9953    0.0000 C   0  0  0  0  0  0  0  0  0  0  0  0
    1.1520   -0.6635    0.0000 C   0  0  0  0  0  0  0  0  0  0  0  0
    2.3040    0.0000    0.0000 C   0  0  0  0  0  0  0  0  0  0  0  0
    3.4560   -0.6635    0.0000 C   0  0  0  0  0  0  0  0  0  0  0  0
    0.0000   -2.6588    0.0000 O   0  0  0  0  0  0  0  0  0  0  0  0
  1  2  1  0  0  0  0
  2  3  2  0  0  0  0
  2  7  1  0  0  0  0
  3  4  1  0  0  0  0
  4  5  2  0  0  0  0
  4  8  1  0  0  0  0
  5  6  1  0  0  0  0
  6  7  2  0  0  0  0
M  END
>  <DSSTox_RID>
21238

>  <DSSTox_CID>
1238

>  <DSSTox_Generic_SID>
21238

>  <DSSTox_FileID>
1297_CPDBAS_v5d

>  <STRUCTURE_Formula>
C6H6O2

>  <STRUCTURE_MolecularWeight>
110.1106

>  <STRUCTURE_ChemicalType>
defined organic

>  <STRUCTURE_TestedForm_DefinedOrganic>
parent

>  <STRUCTURE_Shown>
tested chemical

>  <TestSubstance_ChemicalName>
Resorcinol

>  <TestSubstance_CASRN>
108-46-3

>  <TestSubstance_Description>
single chemical compound

>  <STRUCTURE_ChemicalName_IUPAC>
resorcinol

>  <STRUCTURE_SMILES>
OC1=CC(=CC=C1)O

>  <STRUCTURE_Parent_SMILES>
OC1=CC(=CC=C1)O

>  <STRUCTURE_InChI>
InChI=1/C6H6O2/c7-5-2-1-3-6(8)4-5/h1-4,7-8H

>  <STRUCTURE_InChIKey>
GHMLBKRAJCXXBS-UHFFFAOYAB

>  <StudyType>
Carcinogenicity

>  <Endpoint>
TD50; Tumor Target Sites

>  <Species>
rat; mouse

>  <ActivityOutcome_CPDBAS_Mutagenicity>
inactive

>  <ActivityScore_CPDBAS_Rat>
0

>  <TD50_Rat_Note>
no positive results

>  <TargetSites_Rat_Male>
no positive results

>  <TargetSites_Rat_Female>
no positive results

>  <ActivityOutcome_CPDBAS_Rat>
inactive

>  <ActivityScore_CPDBAS_Mouse>
0

>  <TD50_Mouse_Note>
no positive results

>  <TargetSites_Mouse_Male>
no positive results

>  <TargetSites_Mouse_Female>
no positive results

>  <ActivityOutcome_CPDBAS_Mouse>
inactive

>  <ActivityOutcome_CPDBAS_SingleCellCall>
inactive

>  <ActivityOutcome_CPDBAS_MultiCellCall>
inactive

>  <ActivityOutcome_CPDBAS_MultiCellCall_Details>
multisex inactive; multispecies inactive

>  <NTP_TechnicalReport>
TR 403

>  <ChemicalPage_URL>
http://potency.berkeley.edu/chempages/RESORCINOL.html

$$$$



 22 22  0  0  0  0  0  0  0  0999 V2000
    2.3106   -1.9924    0.0000 C   0  0  0  0  0  0  0  0  0  0  0  0
    3.4729   -1.3421    0.0000 C   0  0  0  0  0  0  0  0  0  0  0  0
    2.3106   -3.3483    0.0000 C   0  0  0  0  0  0  0  0  0  0  0  0
    1.1622   -1.3421    0.0000 C   0  0  0  0  0  0  0  0  0  0  0  0
    4.6074   -1.9924    0.0000 C   0  0  0  0  0  0  0  0  0  0  0  0
   11.5255   -1.9924    0.0000 C   0  0  0  0  0  0  0  0  0  0  0  0
   12.6877   -1.3421    0.0000 C   0  0  0  0  0  0  0  0  0  0  0  0
    8.0803   -1.3421    0.0000 C   0  0  0  0  0  0  0  0  0  0  0  0
   10.3909   -1.3421    0.0000 C   0  0  0  0  0  0  0  0  0  0  0  0
    5.7697   -1.3421    0.0000 C   0  0  0  0  0  0  0  0  0  0  0  0
    9.2287   -1.9924    0.0000 C   0  0  0  0  0  0  0  0  0  0  0  0
    6.9181   -1.9924    0.0000 C   0  0  0  0  0  0  0  0  0  0  0  0
   13.8361   -1.9924    0.0000 O   0  0  0  0  0  0  0  0  0  0  0  0
   12.6877    0.0000    0.0000 O   0  0  0  0  0  0  0  0  0  0  0  0
    1.1622   -3.9986    0.0000 C   0  0  0  0  0  0  0  0  0  0  0  0
    0.0000   -1.9924    0.0000 C   0  0  0  0  0  0  0  0  0  0  0  0
    3.4729   -3.9986    0.0000 C   0  0  0  0  0  0  0  0  0  0  0  0
    1.8125   -0.1937    0.0000 C   0  0  0  0  0  0  0  0  0  0  0  0
    0.4843   -0.1937    0.0000 C   0  0  0  0  0  0  0  0  0  0  0  0
    0.0000   -3.3483    0.0000 C   0  0  0  0  0  0  0  0  0  0  0  0
   10.3909    0.0000    0.0000 C   0  0  0  0  0  0  0  0  0  0  0  0
    5.7697    0.0000    0.0000 C   0  0  0  0  0  0  0  0  0  0  0  0
  1  2  1  0  0  0  0
  1  3  2  0  0  0  0
  1  4  1  0  0  0  0
  2  5  2  0  0  0  0
  3 15  1  0  0  0  0
  3 17  1  0  0  0  0
  4 16  1  0  0  0  0
  4 18  1  0  0  0  0
  4 19  1  0  0  0  0
  5 10  1  0  0  0  0
  6  9  2  0  0  0  0
  6  7  1  0  0  0  0
  7 13  2  0  0  0  0
  7 14  1  0  0  0  0
  8 12  1  0  0  0  0
  8 11  2  0  0  0  0
  9 11  1  0  0  0  0
  9 21  1  0  0  0  0
 10 12  2  0  0  0  0
 10 22  1  0  0  0  0
 15 20  1  0  0  0  0
 16 20  1  0  0  0  0
M  END
>  <DSSTox_RID>
21239

>  <DSSTox_CID>
1239

>  <DSSTox_Generic_SID>
21239

>  <DSSTox_FileID>
1298_CPDBAS_v5d

>  <STRUCTURE_Formula>
C20H28O2

>  <STRUCTURE_MolecularWeight>
300.4351

>  <STRUCTURE_ChemicalType>
defined organic

>  <STRUCTURE_TestedForm_DefinedOrganic>
parent

>  <STRUCTURE_Shown>
tested chemical

>  <TestSubstance_ChemicalName>
Retinoic acid

>  <TestSubstance_CASRN>
302-79-4

>  <TestSubstance_Description>
single chemical compound

>  <ChemicalNote>
stereochem

>  <STRUCTURE_ChemicalName_IUPAC>
retinoic acid

>  <STRUCTURE_SMILES>
CC1(C(=C(CCC1)C)C=CC(=CC=CC(=CC(=O)O)C)C)C

>  <STRUCTURE_Parent_SMILES>
CC1(C(=C(CCC1)C)C=CC(=CC=CC(=CC(=O)O)C)C)C

>  <STRUCTURE_InChI>
InChI=1/C20H28O2/c1-15(8-6-9-16(2)14-19(21)22)11-12-18-17(3)10-7-13-20(18,4)5/h6,8-9,11-12,14H,7,10,13H2,1-5H3,(H,21,22)/b9-6+,12-11+,15-8+,16-14+/f/h21H

>  <STRUCTURE_InChIKey>
SHGAZHPCJJPHSC-FWNNKZREDV

>  <StudyType>
Carcinogenicity

>  <Endpoint>
TD50; Tumor Target Sites

>  <Species>
rat; mouse

>  <ActivityScore_CPDBAS_Rat>
0

>  <TD50_Rat_Note>
no positive results

>  <TargetSites_Rat_Male>
no positive results

>  <TargetSites_Rat_Female>
no positive results

>  <ActivityOutcome_CPDBAS_Rat>
inactive

>  <ActivityScore_CPDBAS_Mouse>
0

>  <TD50_Mouse_Note>
no positive results

>  <TargetSites_Mouse_Male>
no positive results

>  <TargetSites_Mouse_Female>
no positive results

>  <ActivityOutcome_CPDBAS_Mouse>
inactive

>  <ActivityOutcome_CPDBAS_SingleCellCall>
inactive

>  <ActivityOutcome_CPDBAS_MultiCellCall>
inactive

>  <ActivityOutcome_CPDBAS_MultiCellCall_Details>
multisex inactive; multispecies inactive

>  <Note_CPDBAS>
Mouse added v3a

>  <ChemicalPage_URL>
http://potency.berkeley.edu/chempages/RETINOIC%20ACID.html

$$$$



 24 24  0  0  0  0  0  0  0  0999 V2000
    1.8254   -0.1777    0.0000 C   0  0  0  0  0  0  0  0  0  0  0  0
    1.1631   -1.3408    0.0000 C   0  0  0  0  0  0  0  0  0  0  0  0
    2.3100   -1.9869    0.0000 C   0  0  0  0  0  0  0  0  0  0  0  0
    2.3100   -3.3277    0.0000 C   0  0  0  0  0  0  0  0  0  0  0  0
    1.1631   -3.9900    0.0000 C   0  0  0  0  0  0  0  0  0  0  0  0
    0.0000   -3.3277    0.0000 C   0  0  0  0  0  0  0  0  0  0  0  0
    0.0000   -1.9869    0.0000 C   0  0  0  0  0  0  0  0  0  0  0  0
    3.4731   -3.9900    0.0000 C   0  0  0  0  0  0  0  0  0  0  0  0
    3.4731   -1.3408    0.0000 C   0  0  0  0  0  0  0  0  0  0  0  0
    4.6200   -1.9869    0.0000 C   0  0  0  0  0  0  0  0  0  0  0  0
    5.7831   -1.3408    0.0000 C   0  0  0  0  0  0  0  0  0  0  0  0
    6.9300   -1.9869    0.0000 C   0  0  0  0  0  0  0  0  0  0  0  0
    8.0769   -1.3408    0.0000 C   0  0  0  0  0  0  0  0  0  0  0  0
    9.2239   -1.9869    0.0000 C   0  0  0  0  0  0  0  0  0  0  0  0
   10.3708   -1.3246    0.0000 C   0  0  0  0  0  0  0  0  0  0  0  0
   11.5339   -1.9869    0.0000 C   0  0  0  0  0  0  0  0  0  0  0  0
   12.6808   -1.3246    0.0000 C   0  0  0  0  0  0  0  0  0  0  0  0
   13.8439   -1.9869    0.0000 O   0  0  0  0  0  0  0  0  0  0  0  0
   14.9908   -1.3246    0.0000 C   0  0  0  0  0  0  0  0  0  0  0  0
   14.9908    0.0000    0.0000 O   0  0  0  0  0  0  0  0  0  0  0  0
   16.1539   -1.9869    0.0000 C   0  0  0  0  0  0  0  0  0  0  0  0
   10.3708    0.0000    0.0000 C   0  0  0  0  0  0  0  0  0  0  0  0
    5.7831    0.0000    0.0000 C   0  0  0  0  0  0  0  0  0  0  0  0
    0.4846   -0.1777    0.0000 C   0  0  0  0  0  0  0  0  0  0  0  0
  1  2  1  0  0  0  0
  2  3  1  0  0  0  0
  2  7  1  0  0  0  0
  2 24  1  0  0  0  0
  3  4  2  0  0  0  0
  3  9  1  0  0  0  0
  4  5  1  0  0  0  0
  4  8  1  0  0  0  0
  5  6  1  0  0  0  0
  6  7  1  0  0  0  0
  9 10  2  0  0  0  0
 10 11  1  0  0  0  0
 11 12  2  0  0  0  0
 11 23  1  0  0  0  0
 12 13  1  0  0  0  0
 13 14  2  0  0  0  0
 14 15  1  0  0  0  0
 15 16  2  0  0  0  0
 15 22  1  0  0  0  0
 16 17  1  0  0  0  0
 17 18  1  0  0  0  0
 18 19  1  0  0  0  0
 19 20  2  0  0  0  0
 19 21  1  0  0  0  0
M  END
>  <DSSTox_RID>
21240

>  <DSSTox_CID>
1240

>  <DSSTox_Generic_SID>
21240

>  <DSSTox_FileID>
1299_CPDBAS_v5d

>  <STRUCTURE_Formula>
C22H32O2

>  <STRUCTURE_MolecularWeight>
328.4883

>  <STRUCTURE_ChemicalType>
defined organic

>  <STRUCTURE_TestedForm_DefinedOrganic>
parent

>  <STRUCTURE_Shown>
tested chemical

>  <TestSubstance_ChemicalName>
Retinol acetate

>  <TestSubstance_CASRN>
127-47-9

>  <TestSubstance_Description>
single chemical compound

>  <ChemicalNote>
stereochem

>  <STRUCTURE_ChemicalName_IUPAC>
O~15~-acetylretinol

>  <STRUCTURE_SMILES>
CC1(C(=C(CCC1)C)C=CC(=CC=CC(=CCOC(=O)C)C)C)C

>  <STRUCTURE_Parent_SMILES>
CC1(C(=C(CCC1)C)C=CC(=CC=CC(=CCOC(=O)C)C)C)C

>  <STRUCTURE_InChI>
InChI=1/C22H32O2/c1-17(9-7-10-18(2)14-16-24-20(4)23)12-13-21-19(3)11-8-15-22(21,5)6/h7,9-10,12-14H,8,11,15-16H2,1-6H3/b10-7+,13-12+,17-9+,18-14+

>  <STRUCTURE_InChIKey>
QGNJRVVDBSJHIZ-QHLGVNSIBE

>  <StudyType>
Carcinogenicity

>  <Endpoint>
TD50; Tumor Target Sites

>  <Species>
rat

>  <TD50_Rat_mg>
125

>  <TD50_Rat_mmol>
0.381

>  <ActivityScore_CPDBAS_Rat>
30

>  <TD50_Rat_Note>
TD50 is harmonic mean of more than one positive test

>  <TargetSites_Rat_Male>
adrenal gland

>  <TargetSites_Rat_Female>
adrenal gland

>  <ActivityOutcome_CPDBAS_Rat>
active

>  <ActivityOutcome_CPDBAS_SingleCellCall>
active

>  <ActivityOutcome_CPDBAS_MultiCellCall>
active

>  <ActivityOutcome_CPDBAS_MultiCellCall_Details>
multisex active

>  <ChemicalPage_URL>
http://potency.berkeley.edu/chempages/RETINOL%20ACETATE.html

$$$$



 38 38  0  0  0  0  0  0  0  0999 V2000
    1.7721   -2.1436    0.0000 C   0  0  0  0  0  0  0  0  0  0  0  0
    2.0007   -3.4584    0.0000 C   0  0  0  0  0  0  0  0  0  0  0  0
    2.6581   -4.6017    0.0000 C   0  0  0  0  0  0  0  0  0  0  0  0
    2.0007   -5.7449    0.0000 C   0  0  0  0  0  0  0  0  0  0  0  0
    0.6574   -5.7449    0.0000 C   0  0  0  0  0  0  0  0  0  0  0  0
    0.0000   -4.6017    0.0000 C   0  0  0  0  0  0  0  0  0  0  0  0
    0.6574   -3.4584    0.0000 C   0  0  0  0  0  0  0  0  0  0  0  0
    2.6581   -6.9168    0.0000 C   0  0  0  0  0  0  0  0  0  0  0  0
    4.0014   -4.6017    0.0000 C   0  0  0  0  0  0  0  0  0  0  0  0
    4.6588   -5.7449    0.0000 C   0  0  0  0  0  0  0  0  0  0  0  0
    5.9736   -5.7449    0.0000 C   0  0  0  0  0  0  0  0  0  0  0  0
    6.6595   -4.6017    0.0000 C   0  0  0  0  0  0  0  0  0  0  0  0
    7.9743   -4.6017    0.0000 C   0  0  0  0  0  0  0  0  0  0  0  0
    8.6317   -3.4584    0.0000 C   0  0  0  0  0  0  0  0  0  0  0  0
    9.9750   -3.4584    0.0000 C   0  0  0  0  0  0  0  0  0  0  0  0
   10.6324   -2.3151    0.0000 C   0  0  0  0  0  0  0  0  0  0  0  0
   11.9757   -2.3151    0.0000 C   0  0  0  0  0  0  0  0  0  0  0  0
   12.6331   -1.1433    0.0000 O   0  0  0  0  0  0  0  0  0  0  0  0
   13.9479   -1.1433    0.0000 C   0  0  0  0  0  0  0  0  0  0  0  0
   14.6338   -2.3151    0.0000 O   0  0  0  0  0  0  0  0  0  0  0  0
   14.6338    0.0000    0.0000 C   0  0  0  0  0  0  0  0  0  0  0  0
   15.9486    0.0000    0.0000 C   0  0  0  0  0  0  0  0  0  0  0  0
   16.6060   -1.1433    0.0000 C   0  0  0  0  0  0  0  0  0  0  0  0
   17.9493   -1.1433    0.0000 C   0  0  0  0  0  0  0  0  0  0  0  0
   18.6067   -2.3151    0.0000 C   0  0  0  0  0  0  0  0  0  0  0  0
   19.9500   -2.3151    0.0000 C   0  0  0  0  0  0  0  0  0  0  0  0
   20.6074   -3.4584    0.0000 C   0  0  0  0  0  0  0  0  0  0  0  0
   21.9222   -3.4584    0.0000 C   0  0  0  0  0  0  0  0  0  0  0  0
   22.6081   -4.6017    0.0000 C   0  0  0  0  0  0  0  0  0  0  0  0
   23.9229   -4.6017    0.0000 C   0  0  0  0  0  0  0  0  0  0  0  0
   24.5803   -5.7449    0.0000 C   0  0  0  0  0  0  0  0  0  0  0  0
   25.9236   -5.7449    0.0000 C   0  0  0  0  0  0  0  0  0  0  0  0
   26.5810   -6.9168    0.0000 C   0  0  0  0  0  0  0  0  0  0  0  0
   27.9243   -6.9168    0.0000 C   0  0  0  0  0  0  0  0  0  0  0  0
   28.5817   -8.0600    0.0000 C   0  0  0  0  0  0  0  0  0  0  0  0
   10.6324   -4.6017    0.0000 C   0  0  0  0  0  0  0  0  0  0  0  0
    6.6595   -6.9168    0.0000 C   0  0  0  0  0  0  0  0  0  0  0  0
    3.2297   -3.0011    0.0000 C   0  0  0  0  0  0  0  0  0  0  0  0
  1  2  1  0  0  0  0
  2  3  1  0  0  0  0
  2  7  1  0  0  0  0
  2 38  1  0  0  0  0
  3  4  2  0  0  0  0
  3  9  1  0  0  0  0
  4  5  1  0  0  0  0
  4  8  1  0  0  0  0
  5  6  1  0  0  0  0
  6  7  1  0  0  0  0
  9 10  2  0  0  0  0
 10 11  1  0  0  0  0
 11 12  2  0  0  0  0
 11 37  1  0  0  0  0
 12 13  1  0  0  0  0
 13 14  2  0  0  0  0
 14 15  1  0  0  0  0
 15 16  2  0  0  0  0
 15 36  1  0  0  0  0
 16 17  1  0  0  0  0
 17 18  1  0  0  0  0
 18 19  1  0  0  0  0
 19 20  2  0  0  0  0
 19 21  1  0  0  0  0
 21 22  1  0  0  0  0
 22 23  1  0  0  0  0
 23 24  1  0  0  0  0
 24 25  1  0  0  0  0
 25 26  1  0  0  0  0
 26 27  1  0  0  0  0
 27 28  1  0  0  0  0
 28 29  1  0  0  0  0
 29 30  1  0  0  0  0
 30 31  1  0  0  0  0
 31 32  1  0  0  0  0
 32 33  1  0  0  0  0
 33 34  1  0  0  0  0
 34 35  1  0  0  0  0
M  END
>  <DSSTox_RID>
21241

>  <DSSTox_CID>
1241

>  <DSSTox_Generic_SID>
21241

>  <DSSTox_FileID>
1300_CPDBAS_v5d

>  <STRUCTURE_Formula>
C36H60O2

>  <STRUCTURE_MolecularWeight>
524.8604

>  <STRUCTURE_ChemicalType>
defined organic

>  <STRUCTURE_TestedForm_DefinedOrganic>
parent

>  <STRUCTURE_Shown>
tested chemical

>  <TestSubstance_ChemicalName>
Retinol palmitate

>  <TestSubstance_CASRN>
79-81-2

>  <TestSubstance_Description>
single chemical compound

>  <ChemicalNote>
stereochem

>  <STRUCTURE_ChemicalName_IUPAC>
O~15~-hexadecanoylretinol

>  <STRUCTURE_SMILES>
CC1(C(=C(CCC1)C)C=CC(=CC=CC(=CCOC(=O)CCCCCCCCCCCCCCC)C)C)C

>  <STRUCTURE_Parent_SMILES>
CC1(C(=C(CCC1)C)C=CC(=CC=CC(=CCOC(=O)CCCCCCCCCCCCCCC)C)C)C

>  <STRUCTURE_InChI>
InChI=1/C36H60O2/c1-7-8-9-10-11-12-13-14-15-16-17-18-19-25-35(37)38-30-28-32(3)23-20-22-31(2)26-27-34-33(4)24-21-29-36(34,5)6/h20,22-23,26-28H,7-19,21,24-25,29-30H2,1-6H3/b23-20+,27-26+,31-22+,32-28+

>  <STRUCTURE_InChIKey>
VYGQUTWHTHXGQB-FFHKNEKCBB

>  <StudyType>
Carcinogenicity

>  <Endpoint>
TD50; Tumor Target Sites

>  <Species>
rat; mouse

>  <ActivityOutcome_CPDBAS_Mutagenicity>
inactive

>  <ActivityScore_CPDBAS_Rat>
0

>  <TD50_Rat_Note>
no positive results

>  <TargetSites_Rat_Male>
no positive results

>  <ActivityOutcome_CPDBAS_Rat>
inactive

>  <ActivityScore_CPDBAS_Mouse>
0

>  <TD50_Mouse_Note>
no positive results

>  <TargetSites_Mouse_Male>
no positive results

>  <ActivityOutcome_CPDBAS_Mouse>
inactive

>  <ActivityOutcome_CPDBAS_SingleCellCall>
inactive

>  <ActivityOutcome_CPDBAS_MultiCellCall>
inactive

>  <ActivityOutcome_CPDBAS_MultiCellCall_Details>
multispecies inactive

>  <Note_CPDBAS>
Mouse added v3a

>  <ChemicalPage_URL>
http://potency.berkeley.edu/chempages/RETINOL%20PALMITATE.html

$$$$



 27 29  0  0  1  0  0  0  0  0999 V2000
    5.7044   -1.5850    0.0000 C   0  0  1  0  0  0  0  0  0  0  0  0
    2.2362   -3.6172    0.0000 C   0  0  0  0  0  0  0  0  0  0  0  0
    3.3504   -4.2920    0.0000 O   0  0  0  0  0  0  0  0  0  0  0  0
    3.3504   -5.5945    0.0000 C   0  0  1  0  0  0  0  0  0  0  0  0
    6.7166   -2.3304    0.0000 C   0  0  0  0  0  0  0  0  0  0  0  0
    2.2362   -2.3304    0.0000 C   0  0  0  0  0  0  0  0  0  0  0  0
    5.6102   -5.5945    0.0000 C   0  0  0  0  0  0  0  0  0  0  0  0
    4.4960   -7.5640    0.0000 N   0  0  0  0  0  0  0  0  0  0  0  0
    4.4960   -6.2301    0.0000 C   0  0  1  0  0  0  0  0  0  0  0  0
    6.7166   -3.6172    0.0000 O   0  0  0  0  0  0  0  0  0  0  0  0
    4.2920   -1.2633    0.0000 C   0  0  1  0  0  0  0  0  0  0  0  0
    6.7166   -6.2301    0.0000 C   0  0  0  0  0  0  0  0  0  0  0  0
    2.9581   -1.6242    0.0000 C   0  0  0  0  0  0  0  0  0  0  0  0
    2.2362   -6.2301    0.0000 C   0  0  0  0  0  0  0  0  0  0  0  0
    5.6102   -4.2920    0.0000 C   0  0  0  0  0  0  0  0  0  0  0  0
    6.7166   -7.5640    0.0000 C   0  0  0  0  0  0  0  0  0  0  0  0
    2.2362   -7.5640    0.0000 C   0  0  0  0  0  0  0  0  0  0  0  0
    1.0907   -4.2920    0.0000 O   0  0  0  0  0  0  0  0  0  0  0  0
    7.8465   -1.6713    0.0000 O   0  0  0  0  0  0  0  0  0  0  0  0
    1.1299   -1.6713    0.0000 C   0  0  0  0  0  0  0  0  0  0  0  0
    5.6024   -0.4786    0.0000 O   0  0  0  0  0  0  0  0  0  0  0  0
    6.4733   -1.0671    0.0000 C   0  0  0  0  0  0  0  0  0  0  0  0
    7.3678   -1.0671    0.0000 O   0  0  0  0  0  0  0  0  0  0  0  0
    4.2920    0.0000    0.0000 C   0  0  0  0  0  0  0  0  0  0  0  0
    0.0000   -2.3069    0.0000 C   0  0  0  0  0  0  0  0  0  0  0  0
    4.4960   -4.8884    0.0000 H   0  0  0  0  0  0  0  0  0  0  0  0
    1.1299   -0.3688    0.0000 H   0  0  0  0  0  0  0  0  0  0  0  0
  1  5  1  0  0  0  0
  1 11  1  0  0  0  0
  1 21  1  1  0  0  0
  1 22  1  6  0  0  0
  2  6  1  0  0  0  0
  2  3  1  0  0  0  0
  2 18  2  0  0  0  0
  4  3  1  1  0  0  0
  4 14  1  0  0  0  0
  4  9  1  0  0  0  0
  5 10  1  0  0  0  0
  5 19  2  0  0  0  0
  6 13  1  0  0  0  0
  6 20  2  0  0  0  0
  7 15  1  0  0  0  0
  7  9  1  0  0  0  0
  7 12  2  0  0  0  0
  8  9  1  0  0  0  0
  8 17  1  0  0  0  0
  8 16  1  0  0  0  0
  9 26  1  6  0  0  0
 10 15  1  0  0  0  0
 11 13  1  0  0  0  0
 11 24  1  1  0  0  0
 12 16  1  0  0  0  0
 14 17  1  0  0  0  0
 20 25  1  0  0  0  0
 20 27  1  0  0  0  0
 22 23  1  0  0  0  0
M  END
>  <DSSTox_RID>
21242

>  <DSSTox_CID>
1242

>  <DSSTox_Generic_SID>
21242

>  <DSSTox_FileID>
1301_CPDBAS_v5d

>  <STRUCTURE_Formula>
C18H25NO6

>  <STRUCTURE_MolecularWeight>
351.3942

>  <STRUCTURE_ChemicalType>
defined organic

>  <STRUCTURE_TestedForm_DefinedOrganic>
parent

>  <STRUCTURE_Shown>
tested chemical

>  <TestSubstance_ChemicalName>
Retrorsine

>  <TestSubstance_CASRN>
480-54-6

>  <TestSubstance_Description>
single chemical compound

>  <ChemicalNote>
stereochem

>  <STRUCTURE_ChemicalName_IUPAC>
(15Z)-12,18-dihydroxysenecionan-11,16-dione

>  <STRUCTURE_SMILES>
O=C(O[C@@H]1CCN2[C@@]([H])1C3=CC2)\C(C[C@@H](C)[C@](O)(CO)C(OC3)=O)=C([H])/C

>  <STRUCTURE_Parent_SMILES>
O=C(O[C@@H]1CCN2[C@@]([H])1C3=CC2)\C(C[C@@H](C)[C@](O)(CO)C(OC3)=O)=C([H])/C

>  <STRUCTURE_InChI>
InChI=1/C18H25NO6/c1-3-12-8-11(2)18(23,10-20)17(22)24-9-13-4-6-19-7-5-14(15(13)19)25-16(12)21/h3-4,11,14-15,20,23H,5-10H2,1-2H3/b12-3-/t11-,14-,15-,18-/m1/s1

>  <STRUCTURE_InChIKey>
BCJMNZRQJAVDLD-CQRYIUNCBI

>  <StudyType>
Carcinogenicity

>  <Endpoint>
TD50; Tumor Target Sites

>  <Species>
rat

>  <ActivityOutcome_CPDBAS_Mutagenicity>
active

>  <TD50_Rat_mg>
0.862

>  <TD50_Rat_mmol>
0.00245

>  <ActivityScore_CPDBAS_Rat>
53

>  <TargetSites_Rat_Male>
liver

>  <ActivityOutcome_CPDBAS_Rat>
active

>  <ActivityOutcome_CPDBAS_SingleCellCall>
active

>  <Note_CPDBAS>
Rat added v3a; chemical added v3a; TD50_Rat_mg modified v5a

>  <ChemicalPage_URL>
http://potency.berkeley.edu/chempages/RETRORSINE.html

$$$$



 26 28  0  0  0  0  0  0  0  0999 V2000
    6.2442    2.0957    0.0000 C   0  0  0  0  0  0  0  0  0  0  0  0
    5.0331    1.4000    0.0000 C   0  0  2  0  0  0  0  0  0  0  0  0
    5.0074    3.0663    0.0000 H   0  0  0  0  0  0  0  0  0  0  0  0
    3.8221    2.0957    0.0000 C   0  0  2  0  0  0  0  0  0  0  0  0
    3.8221    3.5043    0.0000 O   0  0  0  0  0  0  0  0  0  0  0  0
    2.6110    4.2000    0.0000 C   0  0  0  0  0  0  0  0  0  0  0  0
    2.6110    5.6000    0.0000 C   0  0  0  0  0  0  0  0  0  0  0  0
    3.8221    6.2957    0.0000 C   0  0  0  0  0  0  0  0  0  0  0  0
    5.0331    5.6000    0.0000 C   0  0  0  0  0  0  0  0  0  0  0  0
    5.0331    7.1031    0.0000 C   0  0  0  0  0  0  0  0  0  0  0  0
    6.2442    6.2957    0.0000 C   0  0  1  0  0  0  0  0  0  0  0  0
    7.4552    5.6000    0.0000 C   0  0  0  0  0  0  0  0  0  0  0  0
    7.4552    4.2000    0.0000 O   0  0  0  0  0  0  0  0  0  0  0  0
    6.2442    3.5043    0.0000 C   0  0  0  0  0  0  0  0  0  0  0  0
    8.2025    6.0380    0.0000 O   0  0  0  0  0  0  0  0  0  0  0  0
    7.5583    7.0429    0.0000 C   0  0  0  0  0  0  0  0  0  0  0  0
    8.5890    6.6135    0.0000 O   0  0  0  0  0  0  0  0  0  0  0  0
    6.2528    7.7988    0.0000 O   0  0  0  0  0  0  0  0  0  0  0  0
    1.3055    6.3472    0.0000 C   0  0  0  0  0  0  0  0  0  0  0  0
    0.0000    5.5914    0.0000 C   0  0  0  0  0  0  0  0  0  0  0  0
    1.3991    3.5058    0.0000 O   0  0  0  0  0  0  0  0  0  0  0  0
    2.6110    1.4000    0.0000 C   0  0  0  0  0  0  0  0  0  0  0  0
    2.6110    0.0000    0.0000 C   0  0  0  0  0  0  0  0  0  0  0  0
    5.0331    0.0000    0.0000 N   0  0  0  0  0  0  0  0  0  0  0  0
    7.4552    0.0000    0.0000 C   0  0  0  0  0  0  0  0  0  0  0  0
    7.4552    1.4000    0.0000 C   0  0  0  0  0  0  0  0  0  0  0  0
  2  1  1  0  0  0  0
 14  1  1  0  0  0  0
 26  1  2  0  0  0  0
  2  3  1  6  0  0  0
  4  2  1  0  0  0  0
 24  2  1  0  0  0  0
  4  5  1  1  0  0  0
 22  4  1  0  0  0  0
  6  5  1  0  0  0  0
  7  6  1  0  0  0  0
 21  6  2  0  0  0  0
  8  7  1  0  0  0  0
 19  7  2  0  0  0  0
  9  8  1  0  0  0  0
 10  9  2  0  0  0  0
 11  9  1  0  0  0  0
 12 11  1  0  0  0  0
 11 16  1  6  0  0  0
 11 18  1  1  0  0  0
 13 12  1  0  0  0  0
 15 12  2  0  0  0  0
 14 13  1  0  0  0  0
 17 16  1  0  0  0  0
 20 19  1  0  0  0  0
 23 22  1  0  0  0  0
 24 23  1  0  0  0  0
 25 24  1  0  0  0  0
 26 25  1  0  0  0  0
M  END
>  <DSSTox_RID>
40825

>  <DSSTox_CID>
6006

>  <DSSTox_Generic_SID>
26006

>  <DSSTox_FileID>
1303_CPDBAS_v5d

>  <STRUCTURE_Formula>
C18H23NO6

>  <STRUCTURE_MolecularWeight>
349.3783

>  <STRUCTURE_ChemicalType>
defined organic

>  <STRUCTURE_TestedForm_DefinedOrganic>
parent

>  <STRUCTURE_Shown>
tested chemical

>  <TestSubstance_ChemicalName>
Riddelliine

>  <TestSubstance_CASRN>
23246-96-0

>  <TestSubstance_Description>
single chemical compound

>  <ChemicalNote>
stereochem

>  <STRUCTURE_ChemicalName_IUPAC>
(15Z)-12,18-dihydroxy-13,19-didehydrosenecionan-11,16-dione

>  <STRUCTURE_SMILES>
[H][C@]12C3=CCN1CC[C@H]2OC(/C(CC([C@@](CO)(O)C(OC3)=O)=C)=C\C)=O

>  <STRUCTURE_Parent_SMILES>
[H][C@]12C3=CCN1CC[C@H]2OC(/C(CC([C@@](CO)(O)C(OC3)=O)=C)=C\C)=O

>  <STRUCTURE_InChI>
InChI=1/C18H23NO6/c1-3-12-8-11(2)18(23,10-20)17(22)24-9-13-4-6-19-7-5-14(15(13)19)25-16(12)21/h3-4,14-15,20,23H,2,5-10H2,1H3/b12-3-/t14-,15-,18-/m1/s1

>  <STRUCTURE_InChIKey>
SVCNNZDUGWLODJ-RAYFHMIRBY

>  <StudyType>
Carcinogenicity

>  <Endpoint>
TD50; Tumor Target Sites

>  <Species>
rat; mouse

>  <ActivityOutcome_CPDBAS_Mutagenicity>
active

>  <TD50_Rat_mg>
0.119

>  <TD50_Rat_mmol>
0.000341

>  <ActivityScore_CPDBAS_Rat>
62

>  <TD50_Rat_Note>
TD50 is harmonic mean of more than one positive test

>  <TargetSites_Rat_Male>
hematopoietic system; liver; vascular system

>  <TargetSites_Rat_Female>
hematopoietic system; liver; vascular system

>  <ActivityOutcome_CPDBAS_Rat>
active

>  <TD50_Mouse_mg>
1.97

>  <TD50_Mouse_mmol>
0.00564

>  <ActivityScore_CPDBAS_Mouse>
54

>  <TD50_Mouse_Note>
TD50 is harmonic mean of more than one positive test

>  <TargetSites_Mouse_Male>
vascular system

>  <TargetSites_Mouse_Female>
lung

>  <ActivityOutcome_CPDBAS_Mouse>
active

>  <ActivityOutcome_CPDBAS_SingleCellCall>
active

>  <ActivityOutcome_CPDBAS_MultiCellCall>
active

>  <ActivityOutcome_CPDBAS_MultiCellCall_Details>
multisite active; multisex active; multispecies active

>  <Note_CPDBAS>
Rat added v5a; Mouse added v5a; Mutagenicity_SAL_CPDB added v5a; chemical added v5a; structure modified v5b

>  <ChemicalPage_URL>
http://potency.berkeley.edu/chempages/RIDDELLIINE.html

$$$$



 59 63  0  0  1  0  0  0  0  0999 V2000
    6.0513    4.1919    0.0000 C   0  0  0  0  0  0  0  0  0  0  0  0
    9.6916    6.2562    0.0000 C   0  0  0  0  0  0  0  0  0  0  0  0
    9.6916    4.9010    0.0000 C   0  0  0  0  0  0  0  0  0  0  0  0
    4.8694    4.9010    0.0000 C   0  0  0  0  0  0  0  0  0  0  0  0
    7.2490    6.2562    0.0000 C   0  0  0  0  0  0  0  0  0  0  0  0
    7.2490    4.9010    0.0000 C   0  0  0  0  0  0  0  0  0  0  0  0
    3.6245    2.8208    0.0000 C   0  0  1  0  0  0  0  0  0  0  0  0
   10.8893    6.9812    0.0000 N   0  0  0  0  0  0  0  0  0  0  0  0
    3.6245    4.1919    0.0000 O   0  0  0  0  0  0  0  0  0  0  0  0
    8.4782    6.9812    0.0000 C   0  0  0  0  0  0  0  0  0  0  0  0
    8.4782    4.1919    0.0000 C   0  0  0  0  0  0  0  0  0  0  0  0
    6.0513    6.9812    0.0000 C   0  0  0  0  0  0  0  0  0  0  0  0
    6.0513    2.8208    0.0000 C   0  0  0  0  0  0  0  0  0  0  0  0
    4.8694    6.2562    0.0000 C   0  0  0  0  0  0  0  0  0  0  0  0
    3.6245    8.3679    0.0000 C   0  0  1  0  0  0  0  0  0  0  0  0
   10.8893    8.3679    0.0000 C   0  0  0  0  0  0  0  0  0  0  0  0
    4.8694    9.0770    0.0000 C   0  0  1  0  0  0  0  0  0  0  0  0
    6.0513   11.1730    0.0000 C   0  0  1  0  0  0  0  0  0  0  0  0
    4.8694   10.4481    0.0000 C   0  0  1  0  0  0  0  0  0  0  0  0
   10.9208    4.1919    0.0000 C   0  0  0  0  0  0  0  0  0  0  0  0
    3.6245    6.9812    0.0000 C   0  0  1  0  0  0  0  0  0  0  0  0
   12.1027    2.1117    0.0000 N   0  0  0  0  0  0  0  0  0  0  0  0
    7.2490   10.4481    0.0000 C   0  0  2  0  0  0  0  0  0  0  0  0
   10.9208    2.8051    0.0000 N   0  0  0  0  0  0  0  0  0  0  0  0
   12.0869    9.0770    0.0000 C   0  0  0  0  0  0  0  0  0  0  0  0
    1.2449    2.8208    0.0000 O   0  0  0  0  0  0  0  0  0  0  0  0
   14.5453    0.7092    0.0000 N   0  0  0  0  0  0  0  0  0  0  0  0
    1.2449    4.1919    0.0000 C   0  0  0  0  0  0  0  0  0  0  0  0
    2.4426    4.9010    0.0000 C   0  0  0  0  0  0  0  0  0  0  0  0
    2.4426    6.2562    0.0000 C   0  0  2  0  0  0  0  0  0  0  0  0
   10.8893   11.1730    0.0000 C   0  0  0  0  0  0  0  0  0  0  0  0
    7.2648    2.1432    0.0000 O   0  0  0  0  0  0  0  0  0  0  0  0
   12.0869   10.4481    0.0000 C   0  0  0  0  0  0  0  0  0  0  0  0
    9.6916    9.0770    0.0000 O   0  0  0  0  0  0  0  0  0  0  0  0
   12.1027    0.7092    0.0000 C   0  0  0  0  0  0  0  0  0  0  0  0
   13.3162    2.8208    0.0000 C   0  0  0  0  0  0  0  0  0  0  0  0
    8.4782   11.1730    0.0000 C   0  0  2  0  0  0  0  0  0  0  0  0
    9.6916   10.4481    0.0000 C   0  0  0  0  0  0  0  0  0  0  0  0
    8.4782    8.3679    0.0000 O   0  0  0  0  0  0  0  0  0  0  0  0
    8.4782    2.8051    0.0000 O   0  0  0  0  0  0  0  0  0  0  0  0
    6.0513    8.3679    0.0000 O   0  0  0  0  0  0  0  0  0  0  0  0
   14.5453    2.1117    0.0000 C   0  0  0  0  0  0  0  0  0  0  0  0
   13.3162    0.0000    0.0000 C   0  0  0  0  0  0  0  0  0  0  0  0
    3.6088   11.1730    0.0000 O   0  0  0  0  0  0  0  0  0  0  0  0
    7.2490    9.0770    0.0000 O   0  0  0  0  0  0  0  0  0  0  0  0
    3.6245    1.4499    0.0000 C   0  0  0  0  0  0  0  0  0  0  0  0
    4.8694    7.6745    0.0000 C   0  0  0  0  0  0  0  0  0  0  0  0
    6.0513   12.5440    0.0000 C   0  0  0  0  0  0  0  0  0  0  0  0
    1.2134    6.9812    0.0000 O   0  0  0  0  0  0  0  0  0  0  0  0
   15.7588    0.0000    0.0000 C   0  0  0  0  0  0  0  0  0  0  0  0
   13.3162    8.3679    0.0000 C   0  0  0  0  0  0  0  0  0  0  0  0
    8.4782   12.5440    0.0000 C   0  0  0  0  0  0  0  0  0  0  0  0
    0.0000    6.2562    0.0000 C   0  0  0  0  0  0  0  0  0  0  0  0
    6.1144    9.7862    0.0000 C   0  0  0  0  0  0  0  0  0  0  0  0
    2.3953    9.1401    0.0000 O   0  0  0  0  0  0  0  0  0  0  0  0
    0.9612    9.1401    0.0000 C   0  0  0  0  0  0  0  0  0  0  0  0
    0.2206   10.3693    0.0000 O   0  0  0  0  0  0  0  0  0  0  0  0
    0.2679    7.8636    0.0000 C   0  0  0  0  0  0  0  0  0  0  0  0
    3.6245    5.5471    0.0000 C   0  0  0  0  0  0  0  0  0  0  0  0
  1  4  2  0  0  0  0
  1  6  1  0  0  0  0
  1 13  1  0  0  0  0
  2  3  1  0  0  0  0
  2  8  1  0  0  0  0
  2 10  2  0  0  0  0
  3 11  2  0  0  0  0
  3 20  1  0  0  0  0
  4  9  1  0  0  0  0
  4 14  1  0  0  0  0
  5  6  2  0  0  0  0
  5 10  1  0  0  0  0
  5 12  1  0  0  0  0
  6 11  1  0  0  0  0
  7 13  1  0  0  0  0
  7 26  1  0  0  0  0
  7 46  1  6  0  0  0
  7  9  1  0  0  0  0
  8 16  1  0  0  0  0
 10 39  1  0  0  0  0
 11 40  1  0  0  0  0
 12 41  1  0  0  0  0
 12 14  2  0  0  0  0
 13 32  2  0  0  0  0
 14 47  1  0  0  0  0
 15 21  1  0  0  0  0
 15 17  1  0  0  0  0
 15 55  1  1  0  0  0
 16 25  1  0  0  0  0
 16 34  2  0  0  0  0
 17 19  1  0  0  0  0
 17 54  1  1  0  0  0
 18 19  1  0  0  0  0
 18 23  1  0  0  0  0
 18 48  1  6  0  0  0
 19 44  1  6  0  0  0
 20 24  2  0  0  0  0
 21 30  1  0  0  0  0
 21 59  1  6  0  0  0
 22 24  1  0  0  0  0
 22 35  1  0  0  0  0
 22 36  1  0  0  0  0
 23 45  1  6  0  0  0
 23 37  1  0  0  0  0
 25 33  2  0  0  0  0
 25 51  1  0  0  0  0
 26 28  1  0  0  0  0
 27 42  1  0  0  0  0
 27 50  1  0  0  0  0
 27 43  1  0  0  0  0
 28 29  2  0  0  0  0
 29 30  1  0  0  0  0
 30 49  1  6  0  0  0
 31 33  1  0  0  0  0
 31 38  2  0  0  0  0
 35 43  1  0  0  0  0
 36 42  1  0  0  0  0
 37 38  1  0  0  0  0
 37 52  1  1  0  0  0
 49 53  1  0  0  0  0
 55 56  1  0  0  0  0
 56 57  2  0  0  0  0
 56 58  1  0  0  0  0
M  END
>  <DSSTox_RID>
21244

>  <DSSTox_CID>
1244

>  <DSSTox_Generic_SID>
21244

>  <DSSTox_FileID>
1304_CPDBAS_v5d

>  <STRUCTURE_Formula>
C43H58N4O12

>  <STRUCTURE_MolecularWeight>
822.9402

>  <STRUCTURE_ChemicalType>
defined organic

>  <STRUCTURE_TestedForm_DefinedOrganic>
parent

>  <STRUCTURE_Shown>
tested chemical

>  <TestSubstance_ChemicalName>
Rifampicin

>  <TestSubstance_CASRN>
13292-46-1

>  <TestSubstance_Description>
single chemical compound

>  <ChemicalNote>
stereochem

>  <STRUCTURE_ChemicalName_IUPAC>
(2S,12Z,14E,16S,17S,18R,19R,20R,21S,22R,23S,24E)-5,6,9,17,19-pentahydroxy-23-methoxy-2,4,12,16,18,20,22-heptamethyl-8-{(E)-[(4-methylpiperazin-1-yl)imino]methyl}-1,11-dioxo-1,2-dihydro-2,7-(epoxypentadeca[1,11,13]trienoimino)naphtho[2,1-b]furan-21-yl ac

>  <STRUCTURE_SMILES>
O=C1C(C2=C(C(O)=C3C)C(O)=C(NC(\C(C)=C/C=C/[C@@H]5C)=O)C(/C=N/N4CCN(C)CC4)=C2O)=C3O[C@@](C)1O/C=C/[C@H](OC)[C@@H](C)[C@@H](OC(C)=O)[C@H](C)[C@H](O)[C@H](C)[C@H]5O

>  <STRUCTURE_Parent_SMILES>
O=C1C(C2=C(C(O)=C3C)C(O)=C(NC(\C(C)=C/C=C/[C@@H]5C)=O)C(/C=N/N4CCN(C)CC4)=C2O)=C3O[C@@](C)1O/C=C/[C@H](OC)[C@@H](C)[C@@H](OC(C)=O)[C@H](C)[C@H](O)[C@H](C)[C@H]5O

>  <STRUCTURE_InChI>
InChI=1/C43H58N4O12/c1-21-12-11-13-22(2)42(55)45-33-28(20-44-47-17-15-46(9)16-18-47)37(52)30-31(38(33)53)36(51)26(6)40-32(30)41(54)43(8,59-40)57-19-14-29(56-10)23(3)39(58-27(7)48)25(5)35(50)24(4)34(21)49/h11-14,19-21,23-25,29,34-35,39,49-53H,15-18H2,1-10H3,(H,45,55)/b12-11+,19-14+,22-13-,44-20+/t21-,23+,24+,25+,29-,34-,35+,39+,43-/m0/s1/f/h45H

>  <STRUCTURE_InChIKey>
JQXXHWHPUNPDRT-SUOBQDSDDO

>  <StudyType>
Carcinogenicity

>  <Endpoint>
TD50; Tumor Target Sites

>  <Species>
rat; mouse

>  <ActivityScore_CPDBAS_Rat>
0

>  <TD50_Rat_Note>
no positive results

>  <TargetSites_Rat_Male>
no positive results

>  <TargetSites_Rat_Female>
no positive results

>  <ActivityOutcome_CPDBAS_Rat>
inactive

>  <TD50_Mouse_mg>
33.6

>  <TD50_Mouse_mmol>
0.0408

>  <ActivityScore_CPDBAS_Mouse>
44

>  <TargetSites_Mouse_Male>
no positive results

>  <TargetSites_Mouse_Female>
liver

>  <ActivityOutcome_CPDBAS_Mouse>
active

>  <ActivityOutcome_CPDBAS_SingleCellCall>
active

>  <ChemicalPage_URL>
http://potency.berkeley.edu/chempages/RIFAMPICIN.html

$$$$



 20 22  0  0  0  0  0  0  0  0999 V2000
    6.1166   -5.1525    0.0000 C   0  0  0  0  0  0  0  0  0  0  0  0
    5.5495   -3.9454    0.0000 C   0  0  0  0  0  0  0  0  0  0  0  0
    4.2209   -3.8401    0.0000 N   0  0  0  0  0  0  0  0  0  0  0  0
    3.3540   -4.8366    0.0000 N   0  0  0  0  0  0  0  0  0  0  0  0
    2.1388   -4.3262    0.0000 C   0  0  0  0  0  0  0  0  0  0  0  0
    0.9803   -4.9905    0.0000 C   0  0  0  0  0  0  0  0  0  0  0  0
    2.2441   -2.9894    0.0000 C   0  0  0  0  0  0  0  0  0  0  0  0
    1.1990   -2.1631    0.0000 N   0  0  0  0  0  0  0  0  0  0  0  0
    1.1990   -0.8345    0.0000 C   0  0  0  0  0  0  0  0  0  0  0  0
    0.0000   -0.2592    0.0000 O   0  0  0  0  0  0  0  0  0  0  0  0
    2.2360    0.0000    0.0000 C   0  0  0  0  0  0  0  0  0  0  0  0
    3.5322   -0.2917    0.0000 N   0  0  0  0  0  0  0  0  0  0  0  0
    4.1156   -1.4907    0.0000 C   0  0  0  0  0  0  0  0  0  0  0  0
    5.4442   -1.4907    0.0000 C   0  0  0  0  0  0  0  0  0  0  0  0
    6.1085   -0.3322    0.0000 C   0  0  0  0  0  0  0  0  0  0  0  0
    7.4372   -0.3322    0.0000 C   0  0  0  0  0  0  0  0  0  0  0  0
    8.1015   -1.4826    0.0000 C   0  0  0  0  0  0  0  0  0  0  0  0
    7.4372   -2.6330    0.0000 C   0  0  0  0  0  0  0  0  0  0  0  0
    6.1166   -2.6330    0.0000 C   0  0  0  0  0  0  0  0  0  0  0  0
    3.5484   -2.6816    0.0000 C   0  0  0  0  0  0  0  0  0  0  0  0
  1  2  1  0  0  0  0
  2  3  1  0  0  0  0
  3  4  1  0  0  0  0
  3 20  1  0  0  0  0
  4  5  2  0  0  0  0
  5  6  1  0  0  0  0
  5  7  1  0  0  0  0
  7  8  1  0  0  0  0
  7 20  2  0  0  0  0
  8  9  1  0  0  0  0
  9 10  2  0  0  0  0
  9 11  1  0  0  0  0
 11 12  1  0  0  0  0
 12 13  2  0  0  0  0
 13 14  1  0  0  0  0
 13 20  1  0  0  0  0
 14 15  2  0  0  0  0
 14 19  1  0  0  0  0
 15 16  1  0  0  0  0
 16 17  2  0  0  0  0
 17 18  1  0  0  0  0
 18 19  2  0  0  0  0
M  END
>  <DSSTox_RID>
21245

>  <DSSTox_CID>
1245

>  <DSSTox_Generic_SID>
21245

>  <DSSTox_FileID>
1305_CPDBAS_v5d

>  <STRUCTURE_Formula>
C15H16N4O

>  <STRUCTURE_MolecularWeight>
268.3176

>  <STRUCTURE_ChemicalType>
defined organic

>  <STRUCTURE_TestedForm_DefinedOrganic>
parent

>  <STRUCTURE_Shown>
tested chemical

>  <TestSubstance_ChemicalName>
Ripazepam

>  <TestSubstance_CASRN>
26308-28-1

>  <TestSubstance_Description>
single chemical compound

>  <STRUCTURE_ChemicalName_IUPAC>
1-ethyl-3-methyl-8-phenyl-4,6-dihydropyrazolo[4,3-e][1,4]diazepin-5(1H)-one

>  <STRUCTURE_SMILES>
O=C(CN=C2C3=CC=CC=C3)NC1=C2N(N=C1C)CC

>  <STRUCTURE_Parent_SMILES>
O=C(CN=C2C3=CC=CC=C3)NC1=C2N(N=C1C)CC

>  <STRUCTURE_InChI>
InChI=1/C15H16N4O/c1-3-19-15-13(10(2)18-19)17-12(20)9-16-14(15)11-7-5-4-6-8-11/h4-8H,3,9H2,1-2H3,(H,17,20)/f/h17H

>  <STRUCTURE_InChIKey>
YFHYNLHGFKXAIQ-HCKMINDGCN

>  <StudyType>
Carcinogenicity

>  <Endpoint>
TD50; Tumor Target Sites

>  <Species>
rat; mouse

>  <ActivityScore_CPDBAS_Rat>
0

>  <TD50_Rat_Note>
no positive results

>  <TargetSites_Rat_Male>
no positive results

>  <TargetSites_Rat_Female>
no positive results

>  <ActivityOutcome_CPDBAS_Rat>
inactive

>  <TD50_Mouse_mg>
114

>  <TD50_Mouse_mmol>
0.425

>  <ActivityScore_CPDBAS_Mouse>
32

>  <TD50_Mouse_Note>
TD50 is harmonic mean of more than one positive test

>  <TargetSites_Mouse_Male>
liver

>  <TargetSites_Mouse_Female>
liver

>  <ActivityOutcome_CPDBAS_Mouse>
active

>  <ActivityOutcome_CPDBAS_SingleCellCall>
active

>  <ActivityOutcome_CPDBAS_MultiCellCall>
active

>  <ActivityOutcome_CPDBAS_MultiCellCall_Details>
multisex active

>  <ChemicalPage_URL>
http://potency.berkeley.edu/chempages/RIPAZEPAM.html

$$$$



 31 35  0  0  1  0  0  0  0  0999 V2000
    8.0602   -4.4011    0.0000 C   0  0  0  0  0  0  0  0  0  0  0  0
    6.9088   -6.3970    0.0000 C   0  0  0  0  0  0  0  0  0  0  0  0
    5.7573   -5.7061    0.0000 C   0  0  1  0  0  0  0  0  0  0  0  0
    8.0602   -5.7061    0.0000 C   0  0  0  0  0  0  0  0  0  0  0  0
    9.2117   -3.7103    0.0000 C   0  0  0  0  0  0  0  0  0  0  0  0
    4.6186   -6.3970    0.0000 C   0  0  0  0  0  0  0  0  0  0  0  0
    6.9088   -3.7103    0.0000 O   0  0  0  0  0  0  0  0  0  0  0  0
    5.7573   -4.4011    0.0000 C   0  0  2  0  0  0  0  0  0  0  0  0
    3.4672   -5.7061    0.0000 C   0  0  0  0  0  0  0  0  0  0  0  0
   11.3355   -3.4800    0.0000 O   0  0  0  0  0  0  0  0  0  0  0  0
   10.3632   -4.4011    0.0000 C   0  0  0  0  0  0  0  0  0  0  0  0
    9.5060   -2.4181    0.0000 C   0  0  0  0  0  0  0  0  0  0  0  0
   10.8237   -2.2901    0.0000 C   0  0  2  0  0  0  0  0  0  0  0  0
    4.6186   -7.7020    0.0000 C   0  0  0  0  0  0  0  0  0  0  0  0
    3.4672   -4.4011    0.0000 O   0  0  0  0  0  0  0  0  0  0  0  0
    2.3157   -6.3970    0.0000 C   0  0  0  0  0  0  0  0  0  0  0  0
    9.2117   -6.3970    0.0000 C   0  0  0  0  0  0  0  0  0  0  0  0
    3.4672   -8.3929    0.0000 C   0  0  0  0  0  0  0  0  0  0  0  0
    2.3157   -7.7020    0.0000 C   0  0  0  0  0  0  0  0  0  0  0  0
   11.5018   -1.1643    0.0000 C   0  0  0  0  0  0  0  0  0  0  0  0
    4.6186   -3.7103    0.0000 C   0  0  0  0  0  0  0  0  0  0  0  0
    6.9088   -7.7020    0.0000 O   0  0  0  0  0  0  0  0  0  0  0  0
   10.3632   -5.7061    0.0000 C   0  0  0  0  0  0  0  0  0  0  0  0
   10.8109    0.0000    0.0000 C   0  0  0  0  0  0  0  0  0  0  0  0
    3.4672   -9.7107    0.0000 O   0  0  0  0  0  0  0  0  0  0  0  0
    1.1515   -8.4057    0.0000 O   0  0  0  0  0  0  0  0  0  0  0  0
   12.7940   -1.1515    0.0000 C   0  0  0  0  0  0  0  0  0  0  0  0
    0.0000   -7.7148    0.0000 C   0  0  0  0  0  0  0  0  0  0  0  0
    2.3157  -10.3759    0.0000 C   0  0  0  0  0  0  0  0  0  0  0  0
    5.7573   -7.0495    0.0000 H   0  0  0  0  0  0  0  0  0  0  0  0
    5.7573   -3.0450    0.0000 H   0  0  0  0  0  0  0  0  0  0  0  0
  1  4  2  0  0  0  0
  1  5  1  0  0  0  0
  1  7  1  0  0  0  0
  2  4  1  0  0  0  0
  2 22  2  0  0  0  0
  2  3  1  0  0  0  0
  3  8  1  0  0  0  0
  3  6  1  0  0  0  0
  3 30  1  6  0  0  0
  4 17  1  0  0  0  0
  5 11  2  0  0  0  0
  5 12  1  0  0  0  0
  6 14  1  0  0  0  0
  6  9  2  0  0  0  0
  7  8  1  0  0  0  0
  8 21  1  0  0  0  0
  8 31  1  6  0  0  0
  9 15  1  0  0  0  0
  9 16  1  0  0  0  0
 10 11  1  0  0  0  0
 10 13  1  0  0  0  0
 11 23  1  0  0  0  0
 12 13  1  0  0  0  0
 13 20  1  6  0  0  0
 14 18  2  0  0  0  0
 15 21  1  0  0  0  0
 16 19  2  0  0  0  0
 17 23  2  0  0  0  0
 18 25  1  0  0  0  0
 18 19  1  0  0  0  0
 19 26  1  0  0  0  0
 20 24  2  0  0  0  0
 20 27  1  0  0  0  0
 25 29  1  0  0  0  0
 26 28  1  0  0  0  0
M  END
>  <DSSTox_RID>
21248

>  <DSSTox_CID>
1248

>  <DSSTox_Generic_SID>
21248

>  <DSSTox_FileID>
1308_CPDBAS_v5d

>  <STRUCTURE_Formula>
C23H22O6

>  <STRUCTURE_MolecularWeight>
394.4172

>  <STRUCTURE_ChemicalType>
defined organic

>  <STRUCTURE_TestedForm_DefinedOrganic>
parent

>  <STRUCTURE_Shown>
tested chemical

>  <TestSubstance_ChemicalName>
Rotenone

>  <TestSubstance_CASRN>
83-79-4

>  <TestSubstance_Description>
single chemical compound

>  <ChemicalNote>
stereochem

>  <STRUCTURE_ChemicalName_IUPAC>
(2R,6aS,12aS)-2-isopropenyl-8,9-dimethoxy-1,2,12,12a-tetrahydrochromeno[3,4-b]furo[2,3-h]chromen-6(6aH)-one

>  <STRUCTURE_SMILES>
O=C([C@](C(C=C4OC)=C(C=C4OC)OC3)([H])[C@]3([H])O2)C(C=C5)=C2C1=C5O[C@@H]([C@@](C)=C)C1

>  <STRUCTURE_Parent_SMILES>
O=C([C@](C(C=C4OC)=C(C=C4OC)OC3)([H])[C@]3([H])O2)C(C=C5)=C2C1=C5O[C@@H]([C@@](C)=C)C1

>  <STRUCTURE_InChI>
InChI=1/C23H22O6/c1-11(2)16-8-14-15(28-16)6-5-12-22(24)21-13-7-18(25-3)19(26-4)9-17(13)27-10-20(21)29-23(12)14/h5-7,9,16,20-21H,1,8,10H2,2-4H3/t16-,20-,21+/m1/s1

>  <STRUCTURE_InChIKey>
JUVIOZPCNVVQFO-HBGVWJBIBF

>  <StudyType>
Carcinogenicity

>  <Endpoint>
TD50; Tumor Target Sites

>  <Species>
rat; mouse

>  <ActivityOutcome_CPDBAS_Mutagenicity>
inactive

>  <ActivityScore_CPDBAS_Rat>
0

>  <TD50_Rat_Note>
no positive results

>  <TargetSites_Rat_Male>
no positive results

>  <TargetSites_Rat_Female>
no positive results

>  <ActivityOutcome_CPDBAS_Rat>
inactive

>  <ActivityScore_CPDBAS_Mouse>
0

>  <TD50_Mouse_Note>
no positive results

>  <TargetSites_Mouse_Male>
no positive results

>  <TargetSites_Mouse_Female>
no positive results

>  <ActivityOutcome_CPDBAS_Mouse>
inactive

>  <ActivityOutcome_CPDBAS_SingleCellCall>
inactive

>  <ActivityOutcome_CPDBAS_MultiCellCall>
inactive

>  <ActivityOutcome_CPDBAS_MultiCellCall_Details>
multisex inactive; multispecies inactive

>  <NTP_TechnicalReport>
TR 320

>  <ChemicalPage_URL>
http://potency.berkeley.edu/chempages/ROTENONE.html

$$$$



 43 47  0  0  1  0  0  0  0  0999 V2000
    4.6024  -11.2995    0.0000 C   0  0  0  0  0  0  0  0  0  0  0  0
    4.6024   -9.9693    0.0000 C   0  0  0  0  0  0  0  0  0  0  0  0
    5.7644   -9.3118    0.0000 C   0  0  0  0  0  0  0  0  0  0  0  0
    6.9112   -9.9693    0.0000 C   0  0  0  0  0  0  0  0  0  0  0  0
    8.0580   -9.3118    0.0000 C   0  0  0  0  0  0  0  0  0  0  0  0
    9.2048   -9.9693    0.0000 C   0  0  0  0  0  0  0  0  0  0  0  0
    9.2048  -11.2995    0.0000 C   0  0  0  0  0  0  0  0  0  0  0  0
    8.0580  -11.9723    0.0000 C   0  0  0  0  0  0  0  0  0  0  0  0
    6.9112  -11.2995    0.0000 C   0  0  0  0  0  0  0  0  0  0  0  0
    5.7644  -11.9723    0.0000 O   0  0  0  0  0  0  0  0  0  0  0  0
   10.3668  -11.9723    0.0000 O   0  0  0  0  0  0  0  0  0  0  0  0
    8.0580   -7.9815    0.0000 O   0  0  0  0  0  0  0  0  0  0  0  0
    5.7644   -7.9815    0.0000 O   0  0  0  0  0  0  0  0  0  0  0  0
    3.4556   -9.3118    0.0000 O   0  0  0  0  0  0  0  0  0  0  0  0
    3.4556   -7.9815    0.0000 C   0  0  2  0  0  0  0  0  0  0  0  0
    4.6024   -7.3088    0.0000 O   0  0  0  0  0  0  0  0  0  0  0  0
    4.6024   -5.9785    0.0000 C   0  0  2  0  0  0  0  0  0  0  0  0
    5.7644   -5.3210    0.0000 C   0  0  0  0  0  0  0  0  0  0  0  0
    5.7644   -3.9908    0.0000 O   0  0  0  0  0  0  0  0  0  0  0  0
    6.9112   -3.3180    0.0000 C   0  0  1  0  0  0  0  0  0  0  0  0
    6.9112   -1.9877    0.0000 C   0  0  1  0  0  0  0  0  0  0  0  0
    8.0580   -1.3303    0.0000 C   0  0  1  0  0  0  0  0  0  0  0  0
    9.2048   -1.9877    0.0000 C   0  0  1  0  0  0  0  0  0  0  0  0
   10.3668   -1.3303    0.0000 O   0  0  0  0  0  0  0  0  0  0  0  0
    9.2048   -3.3180    0.0000 C   0  0  1  0  0  0  0  0  0  0  0  0
    8.0580   -3.9908    0.0000 O   0  0  0  0  0  0  0  0  0  0  0  0
   10.3668   -3.9908    0.0000 C   0  0  0  0  0  0  0  0  0  0  0  0
    8.0580    0.0000    0.0000 O   0  0  0  0  0  0  0  0  0  0  0  0
    5.7644   -1.3303    0.0000 O   0  0  0  0  0  0  0  0  0  0  0  0
    3.4556   -5.3210    0.0000 C   0  0  1  0  0  0  0  0  0  0  0  0
    3.4556   -3.9908    0.0000 O   0  0  0  0  0  0  0  0  0  0  0  0
    2.3088   -5.9785    0.0000 C   0  0  1  0  0  0  0  0  0  0  0  0
    2.3088   -7.3088    0.0000 C   0  0  1  0  0  0  0  0  0  0  0  0
    1.1468   -7.9815    0.0000 O   0  0  0  0  0  0  0  0  0  0  0  0
    1.1468   -5.3210    0.0000 O   0  0  0  0  0  0  0  0  0  0  0  0
    3.4556  -11.9723    0.0000 C   0  0  0  0  0  0  0  0  0  0  0  0
    3.4556  -13.3026    0.0000 C   0  0  0  0  0  0  0  0  0  0  0  0
    2.3088  -13.9600    0.0000 C   0  0  0  0  0  0  0  0  0  0  0  0
    1.1468  -13.3026    0.0000 C   0  0  0  0  0  0  0  0  0  0  0  0
    0.0000  -13.9600    0.0000 O   0  0  0  0  0  0  0  0  0  0  0  0
    1.1468  -11.9723    0.0000 C   0  0  0  0  0  0  0  0  0  0  0  0
    2.3088  -11.2995    0.0000 C   0  0  0  0  0  0  0  0  0  0  0  0
    2.3088  -15.2903    0.0000 O   0  0  0  0  0  0  0  0  0  0  0  0
  1  2  2  0  0  0  0
  1 10  1  0  0  0  0
  1 36  1  0  0  0  0
  2  3  1  0  0  0  0
  2 14  1  0  0  0  0
  3  4  1  0  0  0  0
  3 13  2  0  0  0  0
  4  5  1  0  0  0  0
  4  9  2  0  0  0  0
  5  6  2  0  0  0  0
  5 12  1  0  0  0  0
  6  7  1  0  0  0  0
  7  8  2  0  0  0  0
  7 11  1  0  0  0  0
  8  9  1  0  0  0  0
  9 10  1  0  0  0  0
 15 14  1  1  0  0  0
 15 16  1  0  0  0  0
 15 33  1  0  0  0  0
 16 17  1  0  0  0  0
 17 18  1  1  0  0  0
 17 30  1  0  0  0  0
 18 19  1  0  0  0  0
 20 19  1  1  0  0  0
 20 21  1  0  0  0  0
 20 26  1  0  0  0  0
 21 22  1  0  0  0  0
 21 29  1  6  0  0  0
 22 23  1  0  0  0  0
 22 28  1  6  0  0  0
 23 24  1  1  0  0  0
 23 25  1  0  0  0  0
 25 26  1  0  0  0  0
 25 27  1  6  0  0  0
 30 31  1  6  0  0  0
 30 32  1  0  0  0  0
 32 33  1  0  0  0  0
 32 35  1  1  0  0  0
 33 34  1  6  0  0  0
 36 37  2  0  0  0  0
 36 42  1  0  0  0  0
 37 38  1  0  0  0  0
 38 39  2  0  0  0  0
 38 43  1  0  0  0  0
 39 40  1  0  0  0  0
 39 41  1  0  0  0  0
 41 42  2  0  0  0  0
M  END
>  <DSSTox_RID>
21250

>  <DSSTox_CID>
2326

>  <DSSTox_Generic_SID>
22326

>  <DSSTox_FileID>
1310_CPDBAS_v5d

>  <STRUCTURE_Formula>
C27H30O16

>  <STRUCTURE_MolecularWeight>
610.5244

>  <STRUCTURE_ChemicalType>
defined organic

>  <STRUCTURE_TestedForm_DefinedOrganic>
parent

>  <STRUCTURE_Shown>
tested chemical

>  <TestSubstance_ChemicalName>
Rutin trihydrate

>  <TestSubstance_CASRN>
153-18-4

>  <TestSubstance_Description>
single chemical compound

>  <ChemicalNote>
stereochem, same as rutin, assume 3H2O incorporated into structure

>  <STRUCTURE_ChemicalName_IUPAC>
2-(3,4-dihydroxyphenyl)-5,7-dihydroxy-4-oxo-4H-chromen-3-yl 6-O-(6-deoxy-alpha-L-mannopyranosyl)-beta-D-mannopyranoside

>  <STRUCTURE_SMILES>
OC2=CC1=C(C(O)=C2)C(C(O[C@@H]4O[C@@H]([C@H]([C@H](O)[C@H]4O)O)CO[C@H]3[C@H](O)[C@H](O)[C@H]([C@H](C)O3)O)=C(C5=CC(O)=C(C=C5)O)O1)=O

>  <STRUCTURE_Parent_SMILES>
OC2=CC1=C(C(O)=C2)C(C(O[C@@H]4O[C@@H]([C@H]([C@H](O)[C@H]4O)O)CO[C@H]3[C@H](O)[C@H](O)[C@H]([C@H](C)O3)O)=C(C5=CC(O)=C(C=C5)O)O1)=O

>  <STRUCTURE_InChI>
InChI=1/C27H30O16/c1-8-17(32)20(35)22(37)26(40-8)39-7-15-18(33)21(36)23(38)27(42-15)43-25-19(34)16-13(31)5-10(28)6-14(16)41-24(25)9-2-3-11(29)12(30)4-9/h2-6,8,15,17-18,20-23,26-33,35-38H,7H2,1H3/t8-,15+,17-,18+,20+,21-,22+,23+,26+,27-/m0/s1

>  <STRUCTURE_InChIKey>
IKGXIBQEEMLURG-NVPNHPEKBW

>  <StudyType>
Carcinogenicity

>  <Endpoint>
TD50; Tumor Target Sites

>  <Species>
rat; hamster

>  <ActivityOutcome_CPDBAS_Mutagenicity>
active

>  <ActivityScore_CPDBAS_Rat>
0

>  <TD50_Rat_Note>
no positive results

>  <TargetSites_Rat_Male>
no positive results

>  <TargetSites_Rat_Female>
no positive results

>  <ActivityOutcome_CPDBAS_Rat>
inactive

>  <ActivityScore_CPDBAS_Hamster>
0

>  <TD50_Hamster_Note>
no positive results

>  <TargetSites_Hamster_Male>
no positive results

>  <TargetSites_Hamster_Female>
no positive results

>  <ActivityOutcome_CPDBAS_Hamster>
inactive

>  <ActivityOutcome_CPDBAS_SingleCellCall>
inactive

>  <ActivityOutcome_CPDBAS_MultiCellCall>
inactive

>  <ActivityOutcome_CPDBAS_MultiCellCall_Details>
multisex inactive; multispecies inactive

>  <ChemicalPage_URL>
http://potency.berkeley.edu/chempages/RUTIN%20TRIHYDRATE.html

$$$$



 12 13  0  0  0  0  0  0  0  0999 V2000
    2.3016   -1.9948    0.0000 C   0  0  0  0  0  0  0  0  0  0  0  0
    1.1533   -2.6580    0.0000 C   0  0  0  0  0  0  0  0  0  0  0  0
    1.4305   -3.9598    0.0000 C   0  0  0  0  0  0  0  0  0  0  0  0
    0.5395   -4.9498    0.0000 O   0  0  0  0  0  0  0  0  0  0  0  0
    2.7521   -4.0984    0.0000 N   0  0  0  0  0  0  0  0  0  0  0  0
    3.2916   -2.8857    0.0000 S   0  0  0  0  0  0  0  0  0  0  0  0
    4.0737   -1.8067    0.0000 O   0  0  0  0  0  0  0  0  0  0  0  0
    4.4449   -3.5490    0.0000 O   0  0  0  0  0  0  0  0  0  0  0  0
    0.0000   -1.9948    0.0000 C   0  0  0  0  0  0  0  0  0  0  0  0
    0.0000   -0.6633    0.0000 C   0  0  0  0  0  0  0  0  0  0  0  0
    1.1533    0.0000    0.0000 C   0  0  0  0  0  0  0  0  0  0  0  0
    2.3016   -0.6633    0.0000 C   0  0  0  0  0  0  0  0  0  0  0  0
  1  2  2  0  0  0  0
  1  6  1  0  0  0  0
  1 12  1  0  0  0  0
  2  3  1  0  0  0  0
  2  9  1  0  0  0  0
  3  4  2  0  0  0  0
  3  5  1  0  0  0  0
  5  6  1  0  0  0  0
  6  7  2  0  0  0  0
  6  8  2  0  0  0  0
  9 10  2  0  0  0  0
 10 11  1  0  0  0  0
 11 12  2  0  0  0  0
M  END
>  <DSSTox_RID>
21251

>  <DSSTox_CID>
1251

>  <DSSTox_Generic_SID>
21251

>  <DSSTox_FileID>
1311_CPDBAS_v5d

>  <STRUCTURE_Formula>
C7H5NO3S

>  <STRUCTURE_MolecularWeight>
183.1845

>  <STRUCTURE_ChemicalType>
defined organic

>  <STRUCTURE_TestedForm_DefinedOrganic>
parent

>  <STRUCTURE_Shown>
tested chemical

>  <TestSubstance_ChemicalName>
Saccharin

>  <TestSubstance_CASRN>
81-07-2

>  <TestSubstance_Description>
single chemical compound

>  <STRUCTURE_ChemicalName_IUPAC>
1,2-benzisothiazol-3(2H)-one 1,1-dioxide

>  <STRUCTURE_SMILES>
C12=C(C(=O)NS1(=O)=O)C=CC=C2

>  <STRUCTURE_Parent_SMILES>
C12=C(C(=O)NS1(=O)=O)C=CC=C2

>  <STRUCTURE_InChI>
InChI=1/C7H5NO3S/c9-7-5-3-1-2-4-6(5)12(10,11)8-7/h1-4H,(H,8,9)/f/h8H

>  <STRUCTURE_InChIKey>
CVHZOJJKTDOEJC-FZOZFQFYCW

>  <StudyType>
Carcinogenicity

>  <Endpoint>
TD50; Tumor Target Sites

>  <Species>
rat; mouse

>  <ActivityOutcome_CPDBAS_Mutagenicity>
inactive

>  <ActivityScore_CPDBAS_Rat>
0

>  <TD50_Rat_Note>
no positive results

>  <TargetSites_Rat_Male>
no positive results

>  <ActivityOutcome_CPDBAS_Rat>
inactive

>  <ActivityScore_CPDBAS_Mouse>
0

>  <TD50_Mouse_Note>
no positive results

>  <TargetSites_Mouse_Male>
no positive results

>  <TargetSites_Mouse_Female>
no positive results

>  <ActivityOutcome_CPDBAS_Mouse>
inactive

>  <ActivityOutcome_CPDBAS_SingleCellCall>
inactive

>  <ActivityOutcome_CPDBAS_MultiCellCall>
inactive

>  <ActivityOutcome_CPDBAS_MultiCellCall_Details>
multisex inactive; multispecies inactive

>  <ChemicalPage_URL>
http://potency.berkeley.edu/chempages/SACCHARIN.html

$$$$



 12 13  0  0  0  0  0  0  0  0999 V2000
    0.0000   -2.6625    0.0000 C   0  0  0  0  0  0  0  0  0  0  0  0
    1.1556   -1.9988    0.0000 C   0  0  0  0  0  0  0  0  0  0  0  0
    2.3033   -2.6625    0.0000 C   0  0  0  0  0  0  0  0  0  0  0  0
    3.4589   -1.9988    0.0000 C   0  0  0  0  0  0  0  0  0  0  0  0
    3.4589   -0.6637    0.0000 C   0  0  0  0  0  0  0  0  0  0  0  0
    4.6067    0.0000    0.0000 C   0  0  0  0  0  0  0  0  0  0  0  0
    5.7622   -0.6637    0.0000 C   0  0  0  0  0  0  0  0  0  0  0  0
    5.7622   -1.9988    0.0000 C   0  0  0  0  0  0  0  0  0  0  0  0
    4.6067   -2.6625    0.0000 C   0  0  0  0  0  0  0  0  0  0  0  0
    7.0271   -2.4048    0.0000 O   0  0  0  0  0  0  0  0  0  0  0  0
    7.8079   -1.3351    0.0000 C   0  0  0  0  0  0  0  0  0  0  0  0
    7.0271   -0.2577    0.0000 O   0  0  0  0  0  0  0  0  0  0  0  0
  1  2  2  0  0  0  0
  2  3  1  0  0  0  0
  3  4  1  0  0  0  0
  4  5  2  0  0  0  0
  4  9  1  0  0  0  0
  5  6  1  0  0  0  0
  6  7  2  0  0  0  0
  7  8  1  0  0  0  0
  7 12  1  0  0  0  0
  8  9  2  0  0  0  0
  8 10  1  0  0  0  0
 10 11  1  0  0  0  0
 11 12  1  0  0  0  0
M  END
>  <DSSTox_RID>
21254

>  <DSSTox_CID>
1254

>  <DSSTox_Generic_SID>
21254

>  <DSSTox_FileID>
1314_CPDBAS_v5d

>  <STRUCTURE_Formula>
C10H10O2

>  <STRUCTURE_MolecularWeight>
162.1852

>  <STRUCTURE_ChemicalType>
defined organic

>  <STRUCTURE_TestedForm_DefinedOrganic>
parent

>  <STRUCTURE_Shown>
tested chemical

>  <TestSubstance_ChemicalName>
Safrole

>  <TestSubstance_CASRN>
94-59-7

>  <TestSubstance_Description>
single chemical compound

>  <STRUCTURE_ChemicalName_IUPAC>
5-allyl-1,3-benzodioxole

>  <STRUCTURE_SMILES>
C=CCC1=CC=C2C(=C1)OCO2

>  <STRUCTURE_Parent_SMILES>
C=CCC1=CC=C2C(=C1)OCO2

>  <STRUCTURE_InChI>
InChI=1/C10H10O2/c1-2-3-8-4-5-9-10(6-8)12-7-11-9/h2,4-6H,1,3,7H2

>  <STRUCTURE_InChIKey>
ZMQAAUBTXCXRIC-UHFFFAOYAD

>  <StudyType>
Carcinogenicity

>  <Endpoint>
TD50; Tumor Target Sites

>  <Species>
rat; mouse

>  <ActivityOutcome_CPDBAS_Mutagenicity>
inactive

>  <TD50_Rat_mg>
441

>  <TD50_Rat_mmol>
2.72

>  <ActivityScore_CPDBAS_Rat>
21

>  <TD50_Rat_Note>
TD50 is harmonic mean of more than one positive test

>  <TargetSites_Rat_Male>
liver

>  <TargetSites_Rat_BothSexes>
liver

>  <ActivityOutcome_CPDBAS_Rat>
active

>  <TD50_Mouse_mg>
51.3

>  <TD50_Mouse_mmol>
0.316

>  <ActivityScore_CPDBAS_Mouse>
34

>  <TD50_Mouse_Note>
TD50 is harmonic mean of more than one positive test; harmonic mean of TD50 includes a value for upper 99% confidence limit from study with 100% tumor incidence but no lifetable; greater than ten-fold variation among TD50 values for positive results

>  <TargetSites_Mouse_Male>
liver

>  <TargetSites_Mouse_Female>
liver

>  <ActivityOutcome_CPDBAS_Mouse>
active

>  <ActivityOutcome_CPDBAS_SingleCellCall>
active

>  <ActivityOutcome_CPDBAS_MultiCellCall>
active

>  <ActivityOutcome_CPDBAS_MultiCellCall_Details>
multisex active; multispecies active

>  <ChemicalPage_URL>
http://potency.berkeley.edu/chempages/SAFROLE.html

$$$$



 17 17  0  0  0  0  0  0  0  0999 V2000
    3.1480    0.0000    0.0000 O   0  0  0  0  0  0  0  0  0  0  0  0
    3.8049   -1.1588    0.0000 C   0  0  3  0  0  0  0  0  0  0  0  0
    5.1371   -1.1588    0.0000 C   0  0  0  0  0  0  0  0  0  0  0  0
    5.8032    0.0000    0.0000 C   0  0  0  0  0  0  0  0  0  0  0  0
    7.1354    0.0000    0.0000 C   0  0  0  0  0  0  0  0  0  0  0  0
    7.7924   -1.1588    0.0000 C   0  0  0  0  0  0  0  0  0  0  0  0
    7.1354   -2.3085    0.0000 C   0  0  0  0  0  0  0  0  0  0  0  0
    5.8032   -2.3085    0.0000 C   0  0  0  0  0  0  0  0  0  0  0  0
    7.7924   -3.4582    0.0000 C   0  0  0  0  0  0  0  0  0  0  0  0
    9.1246   -3.4582    0.0000 O   0  0  0  0  0  0  0  0  0  0  0  0
    9.1246   -1.1588    0.0000 O   0  0  0  0  0  0  0  0  0  0  0  0
    3.1480   -2.3085    0.0000 C   0  0  0  0  0  0  0  0  0  0  0  0
    1.8158   -2.3085    0.0000 N   0  0  0  0  0  0  0  0  0  0  0  0
    1.1497   -3.4582    0.0000 C   0  0  0  0  0  0  0  0  0  0  0  0
    2.2994   -4.1243    0.0000 C   0  0  0  0  0  0  0  0  0  0  0  0
    0.4836   -4.6079    0.0000 C   0  0  0  0  0  0  0  0  0  0  0  0
    0.0000   -2.7921    0.0000 C   0  0  0  0  0  0  0  0  0  0  0  0
  1  2  1  0  0  0  0
  2  3  1  0  0  0  0
  2 12  1  0  0  0  0
  3  4  2  0  0  0  0
  3  8  1  0  0  0  0
  4  5  1  0  0  0  0
  5  6  2  0  0  0  0
  6  7  1  0  0  0  0
  6 11  1  0  0  0  0
  7  8  2  0  0  0  0
  7  9  1  0  0  0  0
  9 10  1  0  0  0  0
 12 13  1  0  0  0  0
 13 14  1  0  0  0  0
 14 15  1  0  0  0  0
 14 16  1  0  0  0  0
 14 17  1  0  0  0  0
M  END
>  <DSSTox_RID>
21255

>  <DSSTox_CID>
1255

>  <DSSTox_Generic_SID>
21255

>  <DSSTox_FileID>
1315_CPDBAS_v5d

>  <STRUCTURE_Formula>
C13H21NO3

>  <STRUCTURE_MolecularWeight>
239.3138

>  <STRUCTURE_ChemicalType>
defined organic

>  <STRUCTURE_TestedForm_DefinedOrganic>
parent

>  <STRUCTURE_Shown>
tested chemical

>  <TestSubstance_ChemicalName>
Salbutamol

>  <TestSubstance_CASRN>
18559-94-9

>  <TestSubstance_Description>
single chemical compound

>  <STRUCTURE_ChemicalName_IUPAC>
4-{2-[(1,1-dimethylethyl)amino]-1-hydroxyethyl}-2-(hydroxymethyl)phenol

>  <STRUCTURE_SMILES>
OC(C1=CC=C(C(=C1)CO)O)CNC(C)(C)C

>  <STRUCTURE_Parent_SMILES>
OC(C1=CC=C(C(=C1)CO)O)CNC(C)(C)C

>  <STRUCTURE_InChI>
InChI=1/C13H21NO3/c1-13(2,3)14-7-12(17)9-4-5-11(16)10(6-9)8-15/h4-6,12,14-17H,7-8H2,1-3H3

>  <STRUCTURE_InChIKey>
NDAUXUAQIAJITI-UHFFFAOYAW

>  <StudyType>
Carcinogenicity

>  <Endpoint>
TD50; Tumor Target Sites

>  <Species>
rat

>  <TD50_Rat_mg>
40

>  <TD50_Rat_mmol>
0.167

>  <ActivityScore_CPDBAS_Rat>
34

>  <TD50_Rat_Note>
TD50 is harmonic mean of more than one positive test

>  <TargetSites_Rat_Female>
mesovarium

>  <ActivityOutcome_CPDBAS_Rat>
active

>  <ActivityOutcome_CPDBAS_SingleCellCall>
active

>  <ChemicalPage_URL>
http://potency.berkeley.edu/chempages/SALBUTAMOL.html

$$$$



 28 30  0  0  0  0  0  0  0  0999 V2000
   13.2958    0.0000    0.0000 C   0  0  0  0  0  0  0  0  0  0  0  0
   14.6254    0.0000    0.0000 C   0  0  0  0  0  0  0  0  0  0  0  0
   15.2826   -1.1615    0.0000 C   0  0  0  0  0  0  0  0  0  0  0  0
   14.6254   -2.3077    0.0000 C   0  0  0  0  0  0  0  0  0  0  0  0
   13.2958   -2.3077    0.0000 C   0  0  0  0  0  0  0  0  0  0  0  0
   12.6234   -3.4539    0.0000 N   0  0  0  0  0  0  0  0  0  0  0  0
   11.2938   -3.4539    0.0000 S   0  0  0  0  0  0  0  0  0  0  0  0
   11.2938   -4.7834    0.0000 O   0  0  0  0  0  0  0  0  0  0  0  0
   11.2938   -2.1243    0.0000 O   0  0  0  0  0  0  0  0  0  0  0  0
    9.9642   -3.4539    0.0000 C   0  0  0  0  0  0  0  0  0  0  0  0
    9.3071   -4.6153    0.0000 C   0  0  0  0  0  0  0  0  0  0  0  0
    7.9775   -4.6153    0.0000 C   0  0  0  0  0  0  0  0  0  0  0  0
    7.3051   -3.4539    0.0000 C   0  0  0  0  0  0  0  0  0  0  0  0
    5.9755   -3.4539    0.0000 N   0  0  0  0  0  0  0  0  0  0  0  0
    5.3183   -4.6153    0.0000 N   0  0  0  0  0  0  0  0  0  0  0  0
    3.9888   -4.6153    0.0000 C   0  0  0  0  0  0  0  0  0  0  0  0
    3.3163   -5.7615    0.0000 C   0  0  0  0  0  0  0  0  0  0  0  0
    1.9867   -5.7615    0.0000 C   0  0  0  0  0  0  0  0  0  0  0  0
    1.3296   -4.6153    0.0000 C   0  0  0  0  0  0  0  0  0  0  0  0
    0.0000   -4.6153    0.0000 O   0  0  0  0  0  0  0  0  0  0  0  0
    1.9867   -3.4539    0.0000 C   0  0  0  0  0  0  0  0  0  0  0  0
    1.3296   -2.3077    0.0000 C   0  0  0  0  0  0  0  0  0  0  0  0
    0.0000   -2.3077    0.0000 O   0  0  0  0  0  0  0  0  0  0  0  0
    1.9867   -1.1615    0.0000 O   0  0  0  0  0  0  0  0  0  0  0  0
    3.3163   -3.4539    0.0000 C   0  0  0  0  0  0  0  0  0  0  0  0
    7.9775   -2.3077    0.0000 C   0  0  0  0  0  0  0  0  0  0  0  0
    9.3071   -2.3077    0.0000 C   0  0  0  0  0  0  0  0  0  0  0  0
   12.6234   -1.1615    0.0000 N   0  0  0  0  0  0  0  0  0  0  0  0
  1  2  2  0  0  0  0
  1 28  1  0  0  0  0
  2  3  1  0  0  0  0
  3  4  2  0  0  0  0
  4  5  1  0  0  0  0
  5  6  1  0  0  0  0
  5 28  2  0  0  0  0
  6  7  1  0  0  0  0
  7  8  2  0  0  0  0
  7  9  2  0  0  0  0
  7 10  1  0  0  0  0
 10 11  2  0  0  0  0
 10 27  1  0  0  0  0
 11 12  1  0  0  0  0
 12 13  2  0  0  0  0
 13 14  1  0  0  0  0
 13 26  1  0  0  0  0
 14 15  2  0  0  0  0
 15 16  1  0  0  0  0
 16 17  2  0  0  0  0
 16 25  1  0  0  0  0
 17 18  1  0  0  0  0
 18 19  2  0  0  0  0
 19 20  1  0  0  0  0
 19 21  1  0  0  0  0
 21 22  1  0  0  0  0
 21 25  2  0  0  0  0
 22 23  1  0  0  0  0
 22 24  2  0  0  0  0
 26 27  2  0  0  0  0
M  END
>  <DSSTox_RID>
21256

>  <DSSTox_CID>
1256

>  <DSSTox_Generic_SID>
21256

>  <DSSTox_FileID>
1316_CPDBAS_v5d

>  <STRUCTURE_Formula>
C18H14N4O5S

>  <STRUCTURE_MolecularWeight>
398.3926

>  <STRUCTURE_ChemicalType>
defined organic

>  <STRUCTURE_TestedForm_DefinedOrganic>
parent

>  <STRUCTURE_Shown>
tested chemical

>  <TestSubstance_ChemicalName>
Salicylazosulfapyridine

>  <TestSubstance_CASRN>
599-79-1

>  <TestSubstance_Description>
single chemical compound

>  <STRUCTURE_ChemicalName_IUPAC>
2-hydroxy-5-[(E)-{4-[(pyridin-2-ylamino)sulfonyl]phenyl}diazenyl]benzoic acid

>  <STRUCTURE_SMILES>
C3=CC=CC(NS(=O)(=O)C2=CC=C(N=NC1=CC=C(O)C(C(O)=O)=C1)C=C2)=N3

>  <STRUCTURE_Parent_SMILES>
C3=CC=CC(NS(=O)(=O)C2=CC=C(N=NC1=CC=C(O)C(C(O)=O)=C1)C=C2)=N3

>  <STRUCTURE_InChI>
InChI=1/C18H14N4O5S/c23-16-9-6-13(11-15(16)18(24)25)21-20-12-4-7-14(8-5-12)28(26,27)22-17-3-1-2-10-19-17/h1-11,23H,(H,19,22)(H,24,25)/b21-20+/f/h22,24H

>  <STRUCTURE_InChIKey>
NCEXYHBECQHGNR-VRAPHGCZDS

>  <StudyType>
Carcinogenicity

>  <Endpoint>
TD50; Tumor Target Sites

>  <Species>
rat; mouse

>  <ActivityOutcome_CPDBAS_Mutagenicity>
inactive

>  <TD50_Rat_mg>
1590

>  <TD50_Rat_mmol>
3.99

>  <ActivityScore_CPDBAS_Rat>
19

>  <TD50_Rat_Note>
TD50 is harmonic mean of more than one positive test

>  <TargetSites_Rat_Male>
urinary bladder

>  <TargetSites_Rat_Female>
kidney; urinary bladder

>  <ActivityOutcome_CPDBAS_Rat>
active

>  <TD50_Mouse_mg>
1250

>  <TD50_Mouse_mmol>
3.14

>  <ActivityScore_CPDBAS_Mouse>
23

>  <TD50_Mouse_Note>
TD50 is harmonic mean of more than one positive test

>  <TargetSites_Mouse_Male>
liver

>  <TargetSites_Mouse_Female>
liver

>  <ActivityOutcome_CPDBAS_Mouse>
active

>  <ActivityOutcome_CPDBAS_SingleCellCall>
active

>  <ActivityOutcome_CPDBAS_MultiCellCall>
active

>  <ActivityOutcome_CPDBAS_MultiCellCall_Details>
multisite active; multisex active; multispecies active

>  <Note_CPDBAS>
Rat added v2a; Mouse added v2a; TD50_Mouse modified v3a

>  <NTP_TechnicalReport>
TR 457

>  <ChemicalPage_URL>
http://potency.berkeley.edu/chempages/SALICYLAZOSULFAPYRIDINE.html

$$$$



 21 21  0  0  1  0  0  0  0  0999 V2000
    3.6898   -0.6903    0.0000 C   0  0  0  0  0  0  0  0  0  0  0  0
    3.6898   -2.0710    0.0000 C   0  0  0  0  0  0  0  0  0  0  0  0
    2.4916    0.0000    0.0000 C   0  0  0  0  0  0  0  0  0  0  0  0
    1.3013   -0.6903    0.0000 C   0  0  0  0  0  0  0  0  0  0  0  0
    1.3013   -2.0710    0.0000 C   0  0  0  0  0  0  0  0  0  0  0  0
    4.8879   -2.7614    0.0000 C   0  0  0  0  0  0  0  0  0  0  0  0
    4.8879   -4.1421    0.0000 C   0  0  0  0  0  0  0  0  0  0  0  0
    3.6898   -4.8324    0.0000 C   0  0  1  0  0  0  0  0  0  0  0  0
    1.3013   -4.8324    0.0000 C   0  0  0  0  0  0  0  0  0  0  0  0
    0.1032   -2.7614    0.0000 C   0  0  0  0  0  0  0  0  0  0  0  0
    0.1032   -4.1421    0.0000 C   0  0  0  0  0  0  0  0  0  0  0  0
    3.6898   -6.2131    0.0000 C   0  0  0  0  0  0  0  0  0  0  0  0
    2.4916   -6.9034    0.0000 C   0  0  0  0  0  0  0  0  0  0  0  0
    1.3013   -6.2131    0.0000 C   0  0  0  0  0  0  0  0  0  0  0  0
    4.6896   -6.8876    0.0000 C   0  0  0  0  0  0  0  0  0  0  0  0
    5.8401   -6.3242    0.0000 C   0  0  0  0  0  0  0  0  0  0  0  0
    4.7927   -5.2768    0.0000 O   0  0  0  0  0  0  0  0  0  0  0  0
    4.6896   -7.9350    0.0000 C   0  0  0  0  0  0  0  0  0  0  0  0
    5.9354   -2.3646    0.0000 C   0  0  0  0  0  0  0  0  0  0  0  0
    0.2142   -0.1349    0.0000 C   0  0  0  0  0  0  0  0  0  0  0  0
    0.0000   -5.6418    0.0000 C   0  0  0  0  0  0  0  0  0  0  0  0
  1  2  1  0  0  0  0
  1  3  1  0  0  0  0
  2  6  2  0  0  0  0
  3  4  1  0  0  0  0
  4  5  2  0  0  0  0
  4 20  1  0  0  0  0
  5 10  1  0  0  0  0
  6  7  1  0  0  0  0
  6 19  1  0  0  0  0
  7  8  1  0  0  0  0
  8 12  1  0  0  0  0
  8 17  1  1  0  0  0
  9 11  1  0  0  0  0
  9 14  2  0  0  0  0
  9 21  1  0  0  0  0
 10 11  1  0  0  0  0
 12 13  2  0  0  0  0
 12 15  1  0  0  0  0
 13 14  1  0  0  0  0
 15 16  1  0  0  0  0
 15 18  1  0  0  0  0
M  END
>  <DSSTox_RID>
21257

>  <DSSTox_CID>
1257

>  <DSSTox_Generic_SID>
21257

>  <DSSTox_FileID>
1317_CPDBAS_v5d

>  <STRUCTURE_Formula>
C20H32O

>  <STRUCTURE_MolecularWeight>
288.4675

>  <STRUCTURE_ChemicalType>
defined organic

>  <STRUCTURE_TestedForm_DefinedOrganic>
parent

>  <STRUCTURE_Shown>
tested chemical

>  <TestSubstance_ChemicalName>
Sarcophytol A

>  <TestSubstance_CASRN>
72629-69-7

>  <TestSubstance_Description>
single chemical compound

>  <ChemicalNote>
cembrane-type diterpene from soft coral, stereochem

>  <STRUCTURE_ChemicalName_IUPAC>
(1S,2Z,8E,12E)-5,9,13-trimethyl-2-(1-methylethyl)cyclotetradeca-2,4,8,12-tetraen-1-ol

>  <STRUCTURE_SMILES>
CC(C)\C1=C\C=C(/C)CC\C=C(/C)CC\C=C(/C)C[C@@H]1O

>  <STRUCTURE_Parent_SMILES>
CC(C)\C1=C\C=C(/C)CC\C=C(/C)CC\C=C(/C)C[C@@H]1O

>  <STRUCTURE_InChI>
InChI=1/C20H32O/c1-15(2)19-13-12-17(4)10-6-8-16(3)9-7-11-18(5)14-20(19)21/h8,11-13,15,20-21H,6-7,9-10,14H2,1-5H3/b16-8+,17-12-,18-11+,19-13-/t20-/m0/s1

>  <STRUCTURE_InChIKey>
YADVRLOQIWILGX-RGOLEZRPBJ

>  <StudyType>
Carcinogenicity

>  <Endpoint>
TD50; Tumor Target Sites

>  <Species>
mouse

>  <ActivityScore_CPDBAS_Mouse>
0

>  <TD50_Mouse_Note>
no positive results

>  <TargetSites_Mouse_Male>
no positive results

>  <ActivityOutcome_CPDBAS_Mouse>
inactive

>  <ActivityOutcome_CPDBAS_SingleCellCall>
inactive

>  <ChemicalPage_URL>
http://potency.berkeley.edu/chempages/SARCOPHYTOL%20A.html

$$$$



 27 28  0  0  1  0  0  0  0  0999 V2000
    4.9983   -1.6803    0.0000 C   0  0  2  0  0  0  0  0  0  0  0  0
    3.7445   -0.9553    0.0000 C   0  0  0  0  0  0  0  0  0  0  0  0
    3.7445   -3.8383    0.0000 O   0  0  0  0  0  0  0  0  0  0  0  0
    2.4991   -1.6803    0.0000 C   0  0  0  0  0  0  0  0  0  0  0  0
    2.4991   -3.1218    0.0000 C   0  0  0  0  0  0  0  0  0  0  0  0
    5.0495   -4.2562    0.0000 O   0  0  0  0  0  0  0  0  0  0  0  0
    2.8233   -5.8683    0.0000 C   0  0  0  0  0  0  0  0  0  0  0  0
    3.6677   -4.6998    0.0000 C   0  0  2  0  0  0  0  0  0  0  0  0
    3.6677   -7.0369    0.0000 C   0  0  0  0  0  0  0  0  0  0  0  0
    5.0409   -5.1433    0.0000 C   0  0  0  0  0  0  0  0  0  0  0  0
    5.0409   -6.5848    0.0000 N   0  0  0  0  0  0  0  0  0  0  0  0
    6.4142   -4.6998    0.0000 C   0  0  0  0  0  0  0  0  0  0  0  0
    7.2586   -5.8683    0.0000 C   0  0  0  0  0  0  0  0  0  0  0  0
    6.4142   -7.0369    0.0000 C   0  0  0  0  0  0  0  0  0  0  0  0
    5.0495   -7.7363    0.0000 C   0  0  0  0  0  0  0  0  0  0  0  0
    7.4974   -1.6803    0.0000 C   0  0  0  0  0  0  0  0  0  0  0  0
    7.4974   -3.1218    0.0000 O   0  0  0  0  0  0  0  0  0  0  0  0
    6.2521   -0.9553    0.0000 C   0  0  2  0  0  0  0  0  0  0  0  0
    6.4057   -3.8980    0.0000 C   0  0  0  0  0  0  0  0  0  0  0  0
    8.5295   -1.0918    0.0000 O   0  0  0  0  0  0  0  0  0  0  0  0
    5.4845    0.0000    0.0000 O   0  0  0  0  0  0  0  0  0  0  0  0
    7.4377   -0.0682    0.0000 C   0  0  0  0  0  0  0  0  0  0  0  0
    5.9707   -2.5077    0.0000 C   0  0  0  0  0  0  0  0  0  0  0  0
    1.2453   -0.9553    0.0000 C   0  0  0  0  0  0  0  0  0  0  0  0
    0.0000   -1.6803    0.0000 C   0  0  0  0  0  0  0  0  0  0  0  0
    1.2538   -3.8383    0.0000 O   0  0  0  0  0  0  0  0  0  0  0  0
    4.1795   -2.3456    0.0000 H   0  0  0  0  0  0  0  0  0  0  0  0
  1  2  1  0  0  0  0
  1 18  1  0  0  0  0
  1 23  1  6  0  0  0
  1 27  1  1  0  0  0
  2  4  1  0  0  0  0
  3  5  1  0  0  0  0
  8  3  1  1  0  0  0
  4 24  2  0  0  0  0
  4  5  1  0  0  0  0
  5 26  2  0  0  0  0
  6 10  2  0  0  0  0
  7  8  1  0  0  0  0
  7  9  1  0  0  0  0
  8 10  1  0  0  0  0
  9 11  1  0  0  0  0
 10 12  1  0  0  0  0
 11 14  1  0  0  0  0
 11 15  1  0  0  0  0
 12 13  2  0  0  0  0
 12 19  1  0  0  0  0
 13 14  1  0  0  0  0
 16 17  1  0  0  0  0
 16 18  1  0  0  0  0
 16 20  2  0  0  0  0
 17 19  1  0  0  0  0
 18 21  1  1  0  0  0
 18 22  1  6  0  0  0
 24 25  1  0  0  0  0
M  END
>  <DSSTox_RID>
21266

>  <DSSTox_CID>
1266

>  <DSSTox_Generic_SID>
21266

>  <DSSTox_FileID>
1325_CPDBAS_v5d

>  <STRUCTURE_Formula>
C19H27NO6

>  <STRUCTURE_MolecularWeight>
365.4254

>  <STRUCTURE_ChemicalType>
defined organic

>  <STRUCTURE_TestedForm_DefinedOrganic>
parent

>  <STRUCTURE_Shown>
tested chemical

>  <TestSubstance_ChemicalName>
Senkirkine

>  <TestSubstance_CASRN>
2318-18-5

>  <TestSubstance_Description>
single chemical compound

>  <ChemicalNote>
stereochem, tautomers

>  <STRUCTURE_ChemicalName_IUPAC>
(1R,4Z,6R,7R,11Z)-4-ethylidene-7-hydroxy-6,7,14-trimethyl-2,9-dioxa-14-azabicyclo[9.5.1]heptadec-11-ene-3,8,17-trione

>  <STRUCTURE_SMILES>
O=C1[C@H](OC(\C(C[C@@]([H])(C)[C@](C)2O)=C/C)=O)CCN(C)C/C=C1/COC2=O

>  <STRUCTURE_Parent_SMILES>
O=C1[C@H](OC(\C(C[C@@]([H])(C)[C@](C)2O)=C/C)=O)CCN(C)C/C=C1/COC2=O

>  <STRUCTURE_InChI>
InChI=1/C19H27NO6/c1-5-13-10-12(2)19(3,24)18(23)25-11-14-6-8-20(4)9-7-15(16(14)21)26-17(13)22/h5-6,12,15,24H,7-11H2,1-4H3/b13-5-,14-6-/t12-,15-,19-/m1/s1

>  <STRUCTURE_InChIKey>
HPDHKHMHQGCNPE-QLJRNOHWBN

>  <StudyType>
Carcinogenicity

>  <Endpoint>
TD50; Tumor Target Sites

>  <Species>
rat

>  <TD50_Rat_mg>
1.7

>  <TD50_Rat_mmol>
0.00465

>  <ActivityScore_CPDBAS_Rat>
50

>  <TD50_Rat_Note>
positive test results only by intraperitoneal or intravenous injection

>  <TargetSites_Rat_Male>
liver

>  <ActivityOutcome_CPDBAS_Rat>
active

>  <ActivityOutcome_CPDBAS_SingleCellCall>
active

>  <ChemicalPage_URL>
http://potency.berkeley.edu/chempages/SENKIRKINE.html

$$$$



 10 11  0  0  0  0  0  0  0  0999 V2000
    5.5020   -2.6575    0.0000 O   0  0  0  0  0  0  0  0  0  0  0  0
    4.3521   -1.9917    0.0000 C   0  0  0  0  0  0  0  0  0  0  0  0
    3.1967   -2.6575    0.0000 C   0  0  0  0  0  0  0  0  0  0  0  0
    2.0468   -1.9917    0.0000 C   0  0  0  0  0  0  0  0  0  0  0  0
    2.0468   -0.6602    0.0000 C   0  0  0  0  0  0  0  0  0  0  0  0
    3.1967    0.0000    0.0000 C   0  0  0  0  0  0  0  0  0  0  0  0
    4.3521   -0.6602    0.0000 C   0  0  0  0  0  0  0  0  0  0  0  0
    0.7813   -0.2531    0.0000 O   0  0  0  0  0  0  0  0  0  0  0  0
    0.0000   -1.3260    0.0000 C   0  0  0  0  0  0  0  0  0  0  0  0
    0.7813   -2.4044    0.0000 O   0  0  0  0  0  0  0  0  0  0  0  0
  1  2  1  0  0  0  0
  2  3  2  0  0  0  0
  2  7  1  0  0  0  0
  3  4  1  0  0  0  0
  4  5  2  0  0  0  0
  4 10  1  0  0  0  0
  5  6  1  0  0  0  0
  5  8  1  0  0  0  0
  6  7  2  0  0  0  0
  8  9  1  0  0  0  0
  9 10  1  0  0  0  0
M  END
>  <DSSTox_RID>
21267

>  <DSSTox_CID>
1267

>  <DSSTox_Generic_SID>
21267

>  <DSSTox_FileID>
1327_CPDBAS_v5d

>  <STRUCTURE_Formula>
C7H6O3

>  <STRUCTURE_MolecularWeight>
138.1207

>  <STRUCTURE_ChemicalType>
defined organic

>  <STRUCTURE_TestedForm_DefinedOrganic>
parent

>  <STRUCTURE_Shown>
tested chemical

>  <TestSubstance_ChemicalName>
Sesamol

>  <TestSubstance_CASRN>
533-31-3

>  <TestSubstance_Description>
single chemical compound

>  <STRUCTURE_ChemicalName_IUPAC>
1,3-benzodioxol-5-ol

>  <STRUCTURE_SMILES>
OC1=CC2=C(C=C1)OCO2

>  <STRUCTURE_Parent_SMILES>
OC1=CC2=C(C=C1)OCO2

>  <STRUCTURE_InChI>
InChI=1/C7H6O3/c8-5-1-2-6-7(3-5)10-4-9-6/h1-3,8H,4H2

>  <STRUCTURE_InChIKey>
LUSZGTFNYDARNI-UHFFFAOYAT

>  <StudyType>
Carcinogenicity

>  <Endpoint>
TD50; Tumor Target Sites

>  <Species>
rat; mouse

>  <TD50_Rat_mg>
1350

>  <TD50_Rat_mmol>
9.77

>  <ActivityScore_CPDBAS_Rat>
15

>  <TD50_Rat_Note>
TD50 is harmonic mean of more than one positive test

>  <TargetSites_Rat_Male>
stomach

>  <TargetSites_Rat_Female>
stomach

>  <ActivityOutcome_CPDBAS_Rat>
active

>  <TD50_Mouse_mg>
4490

>  <TD50_Mouse_mmol>
32.5

>  <ActivityScore_CPDBAS_Mouse>
11

>  <TD50_Mouse_Note>
TD50 is harmonic mean of more than one positive test

>  <TargetSites_Mouse_Male>
stomach

>  <TargetSites_Mouse_Female>
stomach

>  <ActivityOutcome_CPDBAS_Mouse>
active

>  <ActivityOutcome_CPDBAS_SingleCellCall>
active

>  <ActivityOutcome_CPDBAS_MultiCellCall>
active

>  <ActivityOutcome_CPDBAS_MultiCellCall_Details>
multisex active; multispecies active

>  <ChemicalPage_URL>
http://potency.berkeley.edu/chempages/SESAMOL.html

$$$$



 13 13  0  0  0  0  0  0  0  0999 V2000
    1.9952    0.0000    0.0000 Cl  0  0  0  0  0  0  0  0  0  0  0  0
    2.6577   -1.1572    0.0000 C   0  0  0  0  0  0  0  0  0  0  0  0
    3.9905   -1.1572    0.0000 N   0  0  0  0  0  0  0  0  0  0  0  0
    4.6529   -2.3065    0.0000 C   0  0  0  0  0  0  0  0  0  0  0  0
    3.9905   -3.4558    0.0000 N   0  0  0  0  0  0  0  0  0  0  0  0
    2.6577   -3.4558    0.0000 C   0  0  0  0  0  0  0  0  0  0  0  0
    1.9952   -2.3065    0.0000 N   0  0  0  0  0  0  0  0  0  0  0  0
    1.9952   -4.6130    0.0000 N   0  0  0  0  0  0  0  0  0  0  0  0
    0.6624   -4.6130    0.0000 C   0  0  0  0  0  0  0  0  0  0  0  0
    0.0000   -5.7623    0.0000 C   0  0  0  0  0  0  0  0  0  0  0  0
    5.9857   -2.3065    0.0000 N   0  0  0  0  0  0  0  0  0  0  0  0
    6.6482   -3.4558    0.0000 C   0  0  0  0  0  0  0  0  0  0  0  0
    7.9810   -3.4558    0.0000 C   0  0  0  0  0  0  0  0  0  0  0  0
  1  2  1  0  0  0  0
  2  3  2  0  0  0  0
  2  7  1  0  0  0  0
  3  4  1  0  0  0  0
  4  5  2  0  0  0  0
  4 11  1  0  0  0  0
  5  6  1  0  0  0  0
  6  7  2  0  0  0  0
  6  8  1  0  0  0  0
  8  9  1  0  0  0  0
  9 10  1  0  0  0  0
 11 12  1  0  0  0  0
 12 13  1  0  0  0  0
M  END
>  <DSSTox_RID>
21268

>  <DSSTox_CID>
1268

>  <DSSTox_Generic_SID>
21268

>  <DSSTox_FileID>
1328_CPDBAS_v5d

>  <STRUCTURE_Formula>
C7H12ClN5

>  <STRUCTURE_MolecularWeight>
201.6567

>  <STRUCTURE_ChemicalType>
defined organic

>  <STRUCTURE_TestedForm_DefinedOrganic>
parent

>  <STRUCTURE_Shown>
tested chemical

>  <TestSubstance_ChemicalName>
Simazine

>  <TestSubstance_CASRN>
122-34-9

>  <TestSubstance_Description>
single chemical compound

>  <STRUCTURE_ChemicalName_IUPAC>
6-chloro-N,N'-diethyl-1,3,5-triazine-2,4-diamine

>  <STRUCTURE_SMILES>
ClC1=NC(=NC(=N1)NCC)NCC

>  <STRUCTURE_Parent_SMILES>
ClC1=NC(=NC(=N1)NCC)NCC

>  <STRUCTURE_InChI>
InChI=1/C7H12ClN5/c1-3-9-6-11-5(8)12-7(13-6)10-4-2/h3-4H2,1-2H3,(H2,9,10,11,12,13)/f/h9-10H

>  <STRUCTURE_InChIKey>
ODCWYMIRDDJXKW-XMBMESGPCW

>  <StudyType>
Carcinogenicity

>  <Endpoint>
TD50; Tumor Target Sites

>  <Species>
mouse

>  <ActivityOutcome_CPDBAS_Mutagenicity>
inactive

>  <ActivityScore_CPDBAS_Mouse>
0

>  <TD50_Mouse_Note>
no positive results

>  <TargetSites_Mouse_Male>
no positive results

>  <TargetSites_Mouse_Female>
no positive results

>  <ActivityOutcome_CPDBAS_Mouse>
inactive

>  <ActivityOutcome_CPDBAS_SingleCellCall>
inactive

>  <ActivityOutcome_CPDBAS_MultiCellCall>
inactive

>  <ActivityOutcome_CPDBAS_MultiCellCall_Details>
multisex inactive

>  <ChemicalPage_URL>
http://potency.berkeley.edu/chempages/SIMAZINE.html

$$$$



  8  7  0  0  0  0  0  0  0  0999 V2000
    5.9806    0.0000    0.0000 O   0  0  0  0  0  0  0  0  0  0  0  0
    5.3167   -1.1543    0.0000 C   0  0  0  0  0  0  0  0  0  0  0  0
    5.9806   -2.3025    0.0000 O   0  0  0  0  0  0  0  0  0  0  0  0
    3.9890   -1.1543    0.0000 C   0  0  0  0  0  0  0  0  0  0  0  0
    3.3252    0.0000    0.0000 C   0  0  0  0  0  0  0  0  0  0  0  0
    1.9915    0.0000    0.0000 C   0  0  0  0  0  0  0  0  0  0  0  0
    1.3277   -1.1543    0.0000 C   0  0  0  0  0  0  0  0  0  0  0  0
    0.0000   -1.1543    0.0000 C   0  0  0  0  0  0  0  0  0  0  0  0
  1  2  1  0  0  0  0
  2  3  2  0  0  0  0
  2  4  1  0  0  0  0
  4  5  2  0  0  0  0
  5  6  1  0  0  0  0
  6  7  2  0  0  0  0
  7  8  1  0  0  0  0
M  END
>  <DSSTox_RID>
21277

>  <DSSTox_CID>
1277

>  <DSSTox_Generic_SID>
21277

>  <DSSTox_FileID>
1337_CPDBAS_v5d

>  <STRUCTURE_Formula>
C6H8O2

>  <STRUCTURE_MolecularWeight>
112.1265

>  <STRUCTURE_ChemicalType>
defined organic

>  <STRUCTURE_TestedForm_DefinedOrganic>
parent

>  <STRUCTURE_Shown>
tested chemical

>  <TestSubstance_ChemicalName>
Sorbic acid

>  <TestSubstance_CASRN>
110-44-1

>  <TestSubstance_Description>
single chemical compound

>  <ChemicalNote>
stereochem

>  <STRUCTURE_ChemicalName_IUPAC>
(2E,4E)-hexa-2,4-dienoic acid

>  <STRUCTURE_SMILES>
OC(=O)C=CC=CC

>  <STRUCTURE_Parent_SMILES>
OC(=O)C=CC=CC

>  <STRUCTURE_InChI>
InChI=1/C6H8O2/c1-2-3-4-5-6(7)8/h2-5H,1H3,(H,7,8)/b3-2+,5-4+/f/h7H

>  <STRUCTURE_InChIKey>
WSWCOQWTEOXDQX-XCVGFYGJDI

>  <StudyType>
Carcinogenicity

>  <Endpoint>
TD50; Tumor Target Sites

>  <Species>
rat; mouse

>  <ActivityOutcome_CPDBAS_Mutagenicity>
inactive

>  <ActivityScore_CPDBAS_Rat>
0

>  <TD50_Rat_Note>
no positive results

>  <TargetSites_Rat_Male>
no positive results

>  <TargetSites_Rat_Female>
no positive results

>  <ActivityOutcome_CPDBAS_Rat>
inactive

>  <ActivityScore_CPDBAS_Mouse>
0

>  <TD50_Mouse_Note>
no positive results

>  <TargetSites_Mouse_Male>
no positive results

>  <TargetSites_Mouse_Female>
no positive results

>  <ActivityOutcome_CPDBAS_Mouse>
inactive

>  <ActivityOutcome_CPDBAS_SingleCellCall>
inactive

>  <ActivityOutcome_CPDBAS_MultiCellCall>
inactive

>  <ActivityOutcome_CPDBAS_MultiCellCall_Details>
multisex inactive; multispecies inactive

>  <Note_CPDBAS>
Mutagenicity_SAL_CPDB added v3a

>  <ChemicalPage_URL>
http://potency.berkeley.edu/chempages/SORBIC%20ACID.html

$$$$



 24 28  0  0  0  0  0  0  0  0999 V2000
    4.4425   -7.4016    0.0000 O   0  0  0  0  0  0  0  0  0  0  0  0
    4.4425   -6.0712    0.0000 C   0  0  0  0  0  0  0  0  0  0  0  0
    3.2896   -5.4020    0.0000 C   0  0  0  0  0  0  0  0  0  0  0  0
    2.1366   -6.0712    0.0000 C   0  0  0  0  0  0  0  0  0  0  0  0
    0.9917   -5.4020    0.0000 C   0  0  0  0  0  0  0  0  0  0  0  0
    0.9917   -4.0717    0.0000 C   0  0  0  0  0  0  0  0  0  0  0  0
    2.1366   -3.4105    0.0000 C   0  0  0  0  0  0  0  0  0  0  0  0
    3.2896   -4.0717    0.0000 C   0  0  0  0  0  0  0  0  0  0  0  0
    4.4425   -3.4105    0.0000 O   0  0  0  0  0  0  0  0  0  0  0  0
    5.5955   -4.0717    0.0000 C   0  0  0  0  0  0  0  0  0  0  0  0
    6.7485   -3.4105    0.0000 C   0  0  0  0  0  0  0  0  0  0  0  0
    7.9014   -4.0717    0.0000 C   0  0  0  0  0  0  0  0  0  0  0  0
    7.9014   -5.4020    0.0000 C   0  0  0  0  0  0  0  0  0  0  0  0
    6.7485   -6.0712    0.0000 C   0  0  0  0  0  0  0  0  0  0  0  0
    5.5955   -5.4020    0.0000 C   0  0  0  0  0  0  0  0  0  0  0  0
    6.7485   -7.4016    0.0000 O   0  0  0  0  0  0  0  0  0  0  0  0
    1.8625   -2.1044    0.0000 C   0  0  3  0  0  0  0  0  0  0  0  0
    0.5402   -1.9673    0.0000 C   0  0  3  0  0  0  0  0  0  0  0  0
    0.0000   -3.1848    0.0000 O   0  0  0  0  0  0  0  0  0  0  0  0
    0.2661   -0.6611    0.0000 O   0  0  0  0  0  0  0  0  0  0  0  0
    1.4190    0.0000    0.0000 C   0  0  0  0  0  0  0  0  0  0  0  0
    2.4027   -0.8869    0.0000 C   0  0  0  0  0  0  0  0  0  0  0  0
    2.1366   -7.4016    0.0000 O   0  0  0  0  0  0  0  0  0  0  0  0
    0.9917   -8.0627    0.0000 C   0  0  0  0  0  0  0  0  0  0  0  0
  1  2  2  0  0  0  0
  2  3  1  0  0  0  0
  2 15  1  0  0  0  0
  3  4  2  0  0  0  0
  3  8  1  0  0  0  0
  4  5  1  0  0  0  0
  4 23  1  0  0  0  0
  5  6  2  0  0  0  0
  6  7  1  0  0  0  0
  6 19  1  0  0  0  0
  7  8  2  0  0  0  0
  7 17  1  0  0  0  0
  8  9  1  0  0  0  0
  9 10  1  0  0  0  0
 10 11  2  0  0  0  0
 10 15  1  0  0  0  0
 11 12  1  0  0  0  0
 12 13  2  0  0  0  0
 13 14  1  0  0  0  0
 14 15  2  0  0  0  0
 14 16  1  0  0  0  0
 17 18  1  0  0  0  0
 17 22  1  0  0  0  0
 18 19  1  0  0  0  0
 18 20  1  0  0  0  0
 20 21  1  0  0  0  0
 21 22  2  0  0  0  0
 23 24  1  0  0  0  0
M  END
>  <DSSTox_RID>
21280

>  <DSSTox_CID>
1280

>  <DSSTox_Generic_SID>
21280

>  <DSSTox_FileID>
1340_CPDBAS_v5d

>  <STRUCTURE_Formula>
C18H12O6

>  <STRUCTURE_MolecularWeight>
324.2892

>  <STRUCTURE_ChemicalType>
defined organic

>  <STRUCTURE_TestedForm_DefinedOrganic>
parent

>  <STRUCTURE_Shown>
tested chemical

>  <TestSubstance_ChemicalName>
Sterigmatocystin

>  <TestSubstance_CASRN>
10048-13-2

>  <TestSubstance_Description>
single chemical compound

>  <STRUCTURE_ChemicalName_IUPAC>
8-hydroxy-6-(methyloxy)-3a,12c-dihydro-7H-furo[3',2':4,5]furo[2,3-c]xanthen-7-one

>  <STRUCTURE_SMILES>
O=C1C2=C(C=C3C(=C2OC4=CC=CC(=C14)O)C5C(O3)OC=C5)OC

>  <STRUCTURE_Parent_SMILES>
O=C1C2=C(C=C3C(=C2OC4=CC=CC(=C14)O)C5C(O3)OC=C5)OC

>  <STRUCTURE_InChI>
InChI=1/C18H12O6/c1-21-11-7-12-13(8-5-6-22-18(8)24-12)17-15(11)16(20)14-9(19)3-2-4-10(14)23-17/h2-8,18-19H,1H3

>  <STRUCTURE_InChIKey>
UTSVPXMQSFGQTM-UHFFFAOYAZ

>  <StudyType>
Carcinogenicity

>  <Endpoint>
TD50; Tumor Target Sites

>  <Species>
rat; mouse; cynomolgus

>  <ActivityOutcome_CPDBAS_Mutagenicity>
active

>  <TD50_Rat_mg>
0.152

>  <TD50_Rat_mmol>
0.000469

>  <ActivityScore_CPDBAS_Rat>
60

>  <TD50_Rat_Note>
TD50 is harmonic mean of more than one positive test; greater than ten-fold variation among TD50 values for positive results

>  <TargetSites_Rat_Male>
liver; vascular system

>  <TargetSites_Rat_BothSexes>
liver

>  <ActivityOutcome_CPDBAS_Rat>
active

>  <TD50_Mouse_mg>
0.908

>  <TD50_Mouse_mmol>
0.0028

>  <ActivityScore_CPDBAS_Mouse>
57

>  <TD50_Mouse_Note>
TD50 is harmonic mean of more than one positive test

>  <TargetSites_Mouse_Female>
vascular system

>  <ActivityOutcome_CPDBAS_Mouse>
active

>  <TD50_Cynomolgus_mg>
0.127

>  <TargetSites_Cynomolgus>
liver

>  <ActivityOutcome_CPDBAS_Dog_Primates>
active

>  <ActivityOutcome_CPDBAS_SingleCellCall>
active

>  <ActivityOutcome_CPDBAS_MultiCellCall>
active

>  <ActivityOutcome_CPDBAS_MultiCellCall_Details>
multisite active; multisex active; multispecies active

>  <Note_CPDBAS>
TargetSites_Rat_BothSexes modified v5a

>  <ChemicalPage_URL>
http://potency.berkeley.edu/chempages/STERIGMATOCYSTIN.html

$$$$



 58 64  0  0  1  0  0  0  0  0999 V2000
    3.3608  -12.6687    0.0000 C   0  0  1  0  0  0  0  0  0  0  0  0
    8.8549   -9.4832    0.0000 C   0  0  1  0  0  0  0  0  0  0  0  0
    6.7069   -9.4832    0.0000 C   0  0  2  0  0  0  0  0  0  0  0  0
    9.9654   -7.5837    0.0000 C   0  0  1  0  0  0  0  0  0  0  0  0
    2.2503  -13.3116    0.0000 C   0  0  1  0  0  0  0  0  0  0  0  0
    1.1105  -12.6687    0.0000 C   0  0  2  0  0  0  0  0  0  0  0  0
    5.6256  -12.5810    0.0000 C   0  0  0  0  0  0  0  0  0  0  0  0
    6.7069  -10.7253    0.0000 C   0  0  1  0  0  0  0  0  0  0  0  0
    5.6256  -11.3682    0.0000 C   0  0  1  0  0  0  0  0  0  0  0  0
    3.3608  -11.3682    0.0000 O   0  0  0  0  0  0  0  0  0  0  0  0
    7.7590   -8.8987    0.0000 C   0  0  2  0  0  0  0  0  0  0  0  0
    4.5297  -13.2678    0.0000 O   0  0  0  0  0  0  0  0  0  0  0  0
    1.1105  -11.3682    0.0000 C   0  0  1  0  0  0  0  0  0  0  0  0
   11.2513   -7.5837    0.0000 C   0  0  0  0  0  0  0  0  0  0  0  0
    2.2503  -10.7253    0.0000 C   0  0  1  0  0  0  0  0  0  0  0  0
    9.9654   -8.8987    0.0000 C   0  0  0  0  0  0  0  0  0  0  0  0
   11.2513   -9.4832    0.0000 C   0  0  0  0  0  0  0  0  0  0  0  0
    7.7590  -11.3682    0.0000 C   0  0  0  0  0  0  0  0  0  0  0  0
    7.7590   -7.5837    0.0000 C   0  0  0  0  0  0  0  0  0  0  0  0
    8.8549  -10.7253    0.0000 C   0  0  0  0  0  0  0  0  0  0  0  0
    8.8549   -6.9846    0.0000 C   0  0  0  0  0  0  0  0  0  0  0  0
    6.6777  -13.2093    0.0000 O   0  0  0  0  0  0  0  0  0  0  0  0
   11.9527   -6.6047    0.0000 C   0  0  0  0  0  0  0  0  0  0  0  0
    2.2503  -14.6121    0.0000 O   0  0  0  0  0  0  0  0  0  0  0  0
    0.0000  -13.3116    0.0000 O   0  0  0  0  0  0  0  0  0  0  0  0
    0.0000  -10.7253    0.0000 O   0  0  0  0  0  0  0  0  0  0  0  0
    5.6256   -8.8987    0.0000 C   0  0  0  0  0  0  0  0  0  0  0  0
    6.7069   -8.2704    0.0000 C   0  0  0  0  0  0  0  0  0  0  0  0
    4.5297  -10.7106    0.0000 C   0  0  0  0  0  0  0  0  0  0  0  0
    2.2503   -9.4394    0.0000 C   0  0  0  0  0  0  0  0  0  0  0  0
    4.5590  -11.8796    0.0000 C   0  0  0  0  0  0  0  0  0  0  0  0
    1.1105   -8.7818    0.0000 O   0  0  0  0  0  0  0  0  0  0  0  0
    4.5297   -9.4832    0.0000 C   0  0  0  0  0  0  0  0  0  0  0  0
    6.6777  -11.5435    0.0000 H   0  0  0  0  0  0  0  0  0  0  0  0
    7.7736   -9.8631    0.0000 H   0  0  0  0  0  0  0  0  0  0  0  0
    9.9070   -4.8804    0.0000 C   0  0  1  0  0  0  0  0  0  0  0  0
    8.6942   -4.1937    0.0000 C   0  0  1  0  0  0  0  0  0  0  0  0
   11.1198   -4.1937    0.0000 O   0  0  0  0  0  0  0  0  0  0  0  0
    8.6942   -2.7909    0.0000 C   0  0  2  0  0  0  0  0  0  0  0  0
   11.1198   -2.7909    0.0000 C   0  0  1  0  0  0  0  0  0  0  0  0
    9.9070   -2.0895    0.0000 C   0  0  1  0  0  0  0  0  0  0  0  0
    9.9070   -6.2686    0.0000 O   0  0  0  0  0  0  0  0  0  0  0  0
    7.4814   -4.8804    0.0000 O   0  0  0  0  0  0  0  0  0  0  0  0
    7.4814   -2.0895    0.0000 O   0  0  0  0  0  0  0  0  0  0  0  0
    9.9070   -0.6868    0.0000 O   0  0  0  0  0  0  0  0  0  0  0  0
   12.3180   -2.0895    0.0000 C   0  0  0  0  0  0  0  0  0  0  0  0
   12.3180   -0.6868    0.0000 O   0  0  0  0  0  0  0  0  0  0  0  0
    6.2686   -4.1937    0.0000 C   0  0  1  0  0  0  0  0  0  0  0  0
    5.0704   -4.8804    0.0000 C   0  0  1  0  0  0  0  0  0  0  0  0
    6.2686   -2.7909    0.0000 O   0  0  0  0  0  0  0  0  0  0  0  0
    3.8722   -4.1937    0.0000 C   0  0  2  0  0  0  0  0  0  0  0  0
    5.0704   -2.0895    0.0000 C   0  0  1  0  0  0  0  0  0  0  0  0
    3.8722   -2.7909    0.0000 C   0  0  1  0  0  0  0  0  0  0  0  0
    5.0704   -6.2686    0.0000 O   0  0  0  0  0  0  0  0  0  0  0  0
    2.6594   -4.8804    0.0000 O   0  0  0  0  0  0  0  0  0  0  0  0
    2.6594   -2.0895    0.0000 O   0  0  0  0  0  0  0  0  0  0  0  0
    5.0704   -0.6868    0.0000 C   0  0  0  0  0  0  0  0  0  0  0  0
    3.8722    0.0000    0.0000 O   0  0  0  0  0  0  0  0  0  0  0  0
  1 12  1  1  0  0  0
  1  5  1  0  0  0  0
  1 10  1  0  0  0  0
  2 16  1  0  0  0  0
  2 20  1  0  0  0  0
  2 17  1  1  0  0  0
  2 11  1  0  0  0  0
  3 11  1  0  0  0  0
  3  8  1  0  0  0  0
  3 27  1  0  0  0  0
  3 28  1  6  0  0  0
  4 14  1  1  0  0  0
  4 16  1  0  0  0  0
  4 21  1  0  0  0  0
  4 42  1  6  0  0  0
  5  6  1  0  0  0  0
  5 24  1  6  0  0  0
  6 25  1  1  0  0  0
  6 13  1  0  0  0  0
  9  7  1  6  0  0  0
  7 12  1  0  0  0  0
  7 22  2  0  0  0  0
  8  9  1  0  0  0  0
  8 34  1  1  0  0  0
  8 18  1  0  0  0  0
  9 31  1  1  0  0  0
  9 29  1  0  0  0  0
 10 15  1  0  0  0  0
 11 19  1  0  0  0  0
 11 35  1  1  0  0  0
 13 15  1  0  0  0  0
 13 26  1  6  0  0  0
 14 17  1  0  0  0  0
 14 23  2  0  0  0  0
 15 30  1  1  0  0  0
 18 20  1  0  0  0  0
 19 21  1  0  0  0  0
 27 33  1  0  0  0  0
 29 33  1  0  0  0  0
 30 32  1  0  0  0  0
 36 37  1  0  0  0  0
 36 38  1  0  0  0  0
 36 42  1  1  0  0  0
 37 39  1  0  0  0  0
 37 43  1  6  0  0  0
 38 40  1  0  0  0  0
 39 41  1  0  0  0  0
 39 44  1  1  0  0  0
 40 41  1  0  0  0  0
 40 46  1  1  0  0  0
 41 45  1  6  0  0  0
 48 43  1  1  0  0  0
 46 47  1  0  0  0  0
 48 49  1  0  0  0  0
 48 50  1  0  0  0  0
 49 51  1  0  0  0  0
 49 54  1  6  0  0  0
 50 52  1  0  0  0  0
 51 53  1  0  0  0  0
 51 55  1  1  0  0  0
 52 53  1  0  0  0  0
 52 57  1  1  0  0  0
 53 56  1  6  0  0  0
 57 58  1  0  0  0  0
M  END
>  <DSSTox_RID>
21281

>  <DSSTox_CID>
1281

>  <DSSTox_Generic_SID>
21281

>  <DSSTox_FileID>
1341_CPDBAS_v5d

>  <STRUCTURE_Formula>
C38H60O18

>  <STRUCTURE_MolecularWeight>
804.8722

>  <STRUCTURE_ChemicalType>
defined organic

>  <STRUCTURE_TestedForm_DefinedOrganic>
parent

>  <STRUCTURE_Shown>
tested chemical

>  <TestSubstance_ChemicalName>
Stevioside

>  <TestSubstance_CASRN>
57817-89-7

>  <TestSubstance_Description>
single chemical compound

>  <ChemicalNote>
stereochem

>  <STRUCTURE_ChemicalName_IUPAC>
1-O-{(5beta,8alpha,9beta,10alpha,13alpha)-13-[(2-O-beta-D-glucopyranosyl-beta-D-glucopyranosyl)oxy]-18-oxokaur-16-en-18-yl}-beta-D-glucopyranose

>  <STRUCTURE_SMILES>
O=[C@](O[C@H](O[C@H](CO)[C@H]1O)[C@H](O)[C@H]1O)[C@@]5(C)[C@](CC3)([H])[C@](CCC5)(C)[C@@](CC4)([H])[C@@](C2)3C[C@]4(O[C@H]6[C@H](O[C@H]7[C@H](O)[C@@H](O)[C@H](O)[C@@H](CO)O7)[C@@H](O)[C@H](O)[C@@H](CO)O6)[C@@]2=C

>  <STRUCTURE_Parent_SMILES>
O=[C@](O[C@H](O[C@H](CO)[C@H]1O)[C@H](O)[C@H]1O)[C@@]5(C)[C@](CC3)([H])[C@](CCC5)(C)[C@@](CC4)([H])[C@@](C2)3C[C@]4(O[C@H]6[C@H](O[C@H]7[C@H](O)[C@@H](O)[C@H](O)[C@@H](CO)O7)[C@@H](O)[C@H](O)[C@@H](CO)O6)[C@@]2=C

>  <STRUCTURE_InChI>
InChI=1/C38H60O18/c1-16-11-37-9-5-20-35(2,7-4-8-36(20,3)34(50)55-32-29(49)26(46)23(43)18(13-40)52-32)21(37)6-10-38(16,15-37)56-33-30(27(47)24(44)19(14-41)53-33)54-31-28(48)25(45)22(42)17(12-39)51-31/h17-33,39-49H,1,4-15H2,2-3H3/t17-,18-,19-,20+,21+,22-,23-,24-,25+,26+,27+,28-,29-,30-,31+,32+,33+,35-,36-,37-,38+/m1/s1

>  <STRUCTURE_InChIKey>
UEDUENGHJMELGK-HYDKPPNVBH

>  <StudyType>
Carcinogenicity

>  <Endpoint>
TD50; Tumor Target Sites

>  <Species>
rat

>  <ActivityScore_CPDBAS_Rat>
0

>  <TD50_Rat_Note>
no positive results

>  <TargetSites_Rat_Male>
no positive results

>  <TargetSites_Rat_Female>
no positive results

>  <ActivityOutcome_CPDBAS_Rat>
inactive

>  <ActivityOutcome_CPDBAS_SingleCellCall>
inactive

>  <ActivityOutcome_CPDBAS_MultiCellCall>
inactive

>  <ActivityOutcome_CPDBAS_MultiCellCall_Details>
multisex inactive

>  <Note_CPDBAS>
Rat added v3a; chemical added v3a

>  <ChemicalPage_URL>
http://potency.berkeley.edu/chempages/STEVIOSIDE.html

$$$$



 18 18  0  0  1  0  0  0  0  0999 V2000
    5.3141   -2.3031    0.0000 C   0  0  2  0  0  0  0  0  0  0  0  0
    3.9880   -2.3031    0.0000 N   0  0  0  0  0  0  0  0  0  0  0  0
    3.3200   -1.1565    0.0000 C   0  0  0  0  0  0  0  0  0  0  0  0
    1.9940   -1.1565    0.0000 N   0  0  0  0  0  0  0  0  0  0  0  0
    1.3260   -2.3031    0.0000 N   0  0  0  0  0  0  0  0  0  0  0  0
    0.0000   -2.3031    0.0000 O   0  0  0  0  0  0  0  0  0  0  0  0
    1.3260    0.0000    0.0000 C   0  0  0  0  0  0  0  0  0  0  0  0
    3.9880    0.0000    0.0000 O   0  0  0  0  0  0  0  0  0  0  0  0
    5.9821   -1.1565    0.0000 C   0  0  2  0  0  0  0  0  0  0  0  0
    7.3081   -1.1565    0.0000 C   0  0  2  0  0  0  0  0  0  0  0  0
    7.9761    0.0000    0.0000 O   0  0  0  0  0  0  0  0  0  0  0  0
    7.9761   -2.3031    0.0000 C   0  0  2  0  0  0  0  0  0  0  0  0
    7.3081   -3.4596    0.0000 O   0  0  0  0  0  0  0  0  0  0  0  0
    5.9821   -3.4596    0.0000 C   0  0  2  0  0  0  0  0  0  0  0  0
    5.3141   -4.6062    0.0000 O   0  0  0  0  0  0  0  0  0  0  0  0
    9.3021   -2.3031    0.0000 C   0  0  0  0  0  0  0  0  0  0  0  0
    9.9701   -3.4596    0.0000 O   0  0  0  0  0  0  0  0  0  0  0  0
    5.3141    0.0000    0.0000 O   0  0  0  0  0  0  0  0  0  0  0  0
  1  2  1  6  0  0  0
  1  9  1  0  0  0  0
  1 14  1  0  0  0  0
  2  3  1  0  0  0  0
  3  4  1  0  0  0  0
  3  8  2  0  0  0  0
  4  5  1  0  0  0  0
  4  7  1  0  0  0  0
  5  6  2  0  0  0  0
  9 10  1  0  0  0  0
  9 18  1  1  0  0  0
 10 11  1  6  0  0  0
 10 12  1  0  0  0  0
 12 13  1  0  0  0  0
 12 16  1  1  0  0  0
 13 14  1  0  0  0  0
 14 15  1  6  0  0  0
 16 17  1  0  0  0  0
M  END
>  <DSSTox_RID>
21282

>  <DSSTox_CID>
1282

>  <DSSTox_Generic_SID>
21282

>  <DSSTox_FileID>
1343_CPDBAS_v5d

>  <STRUCTURE_Formula>
C8H15N3O7

>  <STRUCTURE_MolecularWeight>
265.2206

>  <STRUCTURE_ChemicalType>
defined organic

>  <STRUCTURE_TestedForm_DefinedOrganic>
parent

>  <STRUCTURE_Shown>
tested chemical

>  <TestSubstance_ChemicalName>
Streptozotocin

>  <TestSubstance_CASRN>
18883-66-4

>  <TestSubstance_Description>
single chemical compound

>  <ChemicalNote>
stereochem

>  <STRUCTURE_ChemicalName_IUPAC>
2-deoxy-2-({[methyl(nitroso)amino]carbonyl}amino)-alpha-D-glucopyranose

>  <STRUCTURE_SMILES>
[C@@H]1(NC(N(N=O)C)=O)[C@H]([C@H](O)[C@H](O[C@@H]1O)CO)O

>  <STRUCTURE_Parent_SMILES>
[C@@H]1(NC(N(N=O)C)=O)[C@H]([C@H](O)[C@H](O[C@@H]1O)CO)O

>  <STRUCTURE_InChI>
InChI=1/C8H15N3O7/c1-11(10-17)8(16)9-4-6(14)5(13)3(2-12)18-7(4)15/h3-7,12-15H,2H2,1H3,(H,9,16)/t3-,4-,5-,6-,7+/m1/s1/f/h9H

>  <STRUCTURE_InChIKey>
ZSJLQEPLLKMAKR-CQRXUCDYDU

>  <StudyType>
Carcinogenicity

>  <Endpoint>
TD50; Tumor Target Sites

>  <Species>
rat; mouse

>  <ActivityOutcome_CPDBAS_Mutagenicity>
active

>  <TD50_Rat_mg>
0.963

>  <TD50_Rat_mmol>
0.00363

>  <ActivityScore_CPDBAS_Rat>
51

>  <TD50_Rat_Note>
positive test results only by intraperitoneal or intravenous injection; TD50 is harmonic mean of more than one positive test

>  <TargetSites_Rat_Male>
kidney

>  <TargetSites_Rat_Female>
kidney

>  <ActivityOutcome_CPDBAS_Rat>
active

>  <TD50_Mouse_mg>
0.272

>  <TD50_Mouse_mmol>
0.00103

>  <ActivityScore_CPDBAS_Mouse>
62

>  <TD50_Mouse_Note>
positive test results only by intraperitoneal or intravenous injection; TD50 is harmonic mean of more than one positive test

>  <TargetSites_Mouse_Male>
kidney; lung

>  <TargetSites_Mouse_Female>
kidney; lung

>  <ActivityOutcome_CPDBAS_Mouse>
active

>  <ActivityOutcome_CPDBAS_SingleCellCall>
active

>  <ActivityOutcome_CPDBAS_MultiCellCall>
active

>  <ActivityOutcome_CPDBAS_MultiCellCall_Details>
multisite active; multisex active; multispecies active

>  <ChemicalPage_URL>
http://potency.berkeley.edu/chempages/STREPTOZOTOCIN.html

$$$$



 17 18  0  0  0  0  0  0  0  0999 V2000
    3.5087    4.1942    0.0000 Cl  0  0  0  0  0  0  0  0  0  0  0  0
    2.6141    3.3170    0.0000 C   0  0  1  0  0  0  0  0  0  0  0  0
    3.8282    2.6141    0.0000 C   0  0  0  0  0  0  0  0  0  0  0  0
    3.8282    1.2141    0.0000 C   0  0  0  0  0  0  0  0  0  0  0  0
    4.5311    0.0000    0.0000 Cl  0  0  0  0  0  0  0  0  0  0  0  0
    5.2282    1.2141    0.0000 Cl  0  0  0  0  0  0  0  0  0  0  0  0
    2.6141    1.7311    0.0000 C   0  0  2  0  0  0  0  0  0  0  0  0
    2.1087    4.2465    0.0000 C   0  0  3  0  0  0  0  0  0  0  0  0
    2.2765    5.3420    0.0000 Cl  0  0  0  0  0  0  0  0  0  0  0  0
    2.7659    0.2751    0.0000 Cl  0  0  0  0  0  0  0  0  0  0  0  0
    1.4000    1.2141    0.0000 C   0  0  0  0  0  0  0  0  0  0  0  0
    0.1859    0.5112    0.0000 C   0  0  0  0  0  0  0  0  0  0  0  0
    1.4000    2.6141    0.0000 C   0  0  0  0  0  0  0  0  0  0  0  0
    0.0000    2.6141    0.0000 C   0  0  0  0  0  0  0  0  0  0  0  0
    0.7029    3.8282    0.0000 C   0  0  0  0  0  0  0  0  0  0  0  0
    4.5311    3.8282    0.0000 Cl  0  0  0  0  0  0  0  0  0  0  0  0
    5.2282    2.6141    0.0000 Cl  0  0  0  0  0  0  0  0  0  0  0  0
  2  1  1  6  0  0  0
  3  2  1  0  0  0  0
  8  2  1  0  0  0  0
 13  2  1  0  0  0  0
  4  3  1  0  0  0  0
 16  3  1  0  0  0  0
 17  3  1  0  0  0  0
  5  4  1  0  0  0  0
  6  4  1  0  0  0  0
  7  4  1  0  0  0  0
  8  7  1  0  0  0  0
  7 10  1  1  0  0  0
 11  7  1  0  0  0  0
  9  8  1  0  0  0  0
 12 11  2  0  0  0  0
 13 11  1  0  0  0  0
 14 13  1  0  0  0  0
 15 13  1  0  0  0  0
M  END
>  <DSSTox_RID>
21283

>  <DSSTox_CID>
1283

>  <DSSTox_Generic_SID>
21283

>  <DSSTox_FileID>
1344_CPDBAS_v5d

>  <STRUCTURE_Formula>
C10H9Cl7

>  <STRUCTURE_MolecularWeight>
377.3521

>  <STRUCTURE_ChemicalType>
defined organic

>  <STRUCTURE_TestedForm_DefinedOrganic>
parent

>  <STRUCTURE_Shown>
tested chemical

>  <TestSubstance_ChemicalName>
Strobane

>  <TestSubstance_CASRN>
8001-50-1

>  <TestSubstance_Description>
single chemical compound

>  <ChemicalNote>
stereochem

>  <STRUCTURE_ChemicalName_IUPAC>
(1S,4S)-1,2,2,3,3,4,7-heptachloro-5,5-dimethyl-6-methylidenebicyclo[2.2.1]heptane

>  <STRUCTURE_SMILES>
Cl[C@@]1(C(C)2C)C(Cl)(Cl)C(Cl)([C@](Cl)(C2=C)C1Cl)Cl

>  <STRUCTURE_Parent_SMILES>
Cl[C@@]1(C(C)2C)C(Cl)(Cl)C(Cl)([C@](Cl)(C2=C)C1Cl)Cl

>  <STRUCTURE_InChI>
InChI=1/C10H9Cl7/c1-4-6(2,3)8(13)5(11)7(4,12)9(14,15)10(8,16)17/h5H,1H2,2-3H3/t5?,7-,8-/m0/s1

>  <STRUCTURE_InChIKey>
HBQPGVWPSQGTJK-TWELXNIEBZ

>  <StudyType>
Carcinogenicity

>  <Endpoint>
TD50; Tumor Target Sites

>  <Species>
mouse

>  <TD50_Mouse_mg>
0.884

>  <TD50_Mouse_mmol>
0.00234

>  <ActivityScore_CPDBAS_Mouse>
58

>  <TD50_Mouse_Note>
TD50 is harmonic mean of more than one positive test

>  <TargetSites_Mouse_Male>
hematopoietic system; liver

>  <TargetSites_Mouse_Female>
no positive results

>  <ActivityOutcome_CPDBAS_Mouse>
active

>  <ActivityOutcome_CPDBAS_SingleCellCall>
active

>  <ActivityOutcome_CPDBAS_MultiCellCall>
active

>  <ActivityOutcome_CPDBAS_MultiCellCall_Details>
multisite active

>  <ChemicalPage_URL>
http://potency.berkeley.edu/chempages/STROBANE.html

$$$$



  8  8  0  0  0  0  0  0  0  0999 V2000
    0.0000    0.0000    0.0000 C   0  0  0  0  0  0  0  0  0  0  0  0
    0.6654   -1.1540    0.0000 C   0  0  0  0  0  0  0  0  0  0  0  0
    1.9962   -1.1540    0.0000 C   0  0  0  0  0  0  0  0  0  0  0  0
    2.6569    0.0000    0.0000 C   0  0  0  0  0  0  0  0  0  0  0  0
    3.9877    0.0000    0.0000 C   0  0  0  0  0  0  0  0  0  0  0  0
    4.6531   -1.1540    0.0000 C   0  0  0  0  0  0  0  0  0  0  0  0
    3.9877   -2.3033    0.0000 C   0  0  0  0  0  0  0  0  0  0  0  0
    2.6569   -2.3033    0.0000 C   0  0  0  0  0  0  0  0  0  0  0  0
  1  2  2  0  0  0  0
  2  3  1  0  0  0  0
  3  4  2  0  0  0  0
  3  8  1  0  0  0  0
  4  5  1  0  0  0  0
  5  6  2  0  0  0  0
  6  7  1  0  0  0  0
  7  8  2  0  0  0  0
M  END
>  <DSSTox_RID>
21284

>  <DSSTox_CID>
1284

>  <DSSTox_Generic_SID>
21284

>  <DSSTox_FileID>
1345_CPDBAS_v5d

>  <STRUCTURE_Formula>
C8H8

>  <STRUCTURE_MolecularWeight>
104.1491

>  <STRUCTURE_ChemicalType>
defined organic

>  <STRUCTURE_TestedForm_DefinedOrganic>
parent

>  <STRUCTURE_Shown>
tested chemical

>  <TestSubstance_ChemicalName>
Styrene

>  <TestSubstance_CASRN>
100-42-5

>  <TestSubstance_Description>
single chemical compound

>  <STRUCTURE_ChemicalName_IUPAC>
styrene

>  <STRUCTURE_SMILES>
C=CC1=CC=CC=C1

>  <STRUCTURE_Parent_SMILES>
C=CC1=CC=CC=C1

>  <STRUCTURE_InChI>
InChI=1/C8H8/c1-2-8-6-4-3-5-7-8/h2-7H,1H2

>  <STRUCTURE_InChIKey>
PPBRXRYQALVLMV-UHFFFAOYAB

>  <StudyType>
Carcinogenicity

>  <Endpoint>
TD50; Tumor Target Sites

>  <Species>
rat; mouse

>  <ActivityOutcome_CPDBAS_Mutagenicity>
active

>  <TD50_Rat_mg>
23.3

>  <TD50_Rat_mmol>
0.224

>  <ActivityScore_CPDBAS_Rat>
32

>  <TargetSites_Rat_Male>
no positive results

>  <TargetSites_Rat_Female>
mammary gland

>  <ActivityOutcome_CPDBAS_Rat>
active

>  <TD50_Mouse_mg>
210

>  <TD50_Mouse_mmol>
2.02

>  <ActivityScore_CPDBAS_Mouse>
25

>  <TD50_Mouse_Note>
TD50 is harmonic mean of more than one positive test

>  <TargetSites_Mouse_Male>
lung

>  <TargetSites_Mouse_Female>
lung

>  <ActivityOutcome_CPDBAS_Mouse>
active

>  <ActivityOutcome_CPDBAS_SingleCellCall>
active

>  <ActivityOutcome_CPDBAS_MultiCellCall>
active

>  <ActivityOutcome_CPDBAS_MultiCellCall_Details>
multisite active; multisex active; multispecies active

>  <Note_CPDBAS>
TD50_Mouse modified v5a; TargetSites_Mouse_Male modified v5a; TargetSites_Mouse_Female modified v5a

>  <NTP_TechnicalReport>
TR 185; final call in CPDB differs due to additional data

>  <ChemicalPage_URL>
http://potency.berkeley.edu/chempages/STYRENE.html

$$$$



  9 10  0  0  0  0  0  0  0  0999 V2000
    0.0000   -0.4886    0.0000 C   0  0  0  0  0  0  0  0  0  0  0  0
    1.1521   -1.1521    0.0000 C   0  0  3  0  0  0  0  0  0  0  0  0
    2.4842   -1.1521    0.0000 C   0  0  0  0  0  0  0  0  0  0  0  0
    3.1476    0.0000    0.0000 C   0  0  0  0  0  0  0  0  0  0  0  0
    4.4797    0.0000    0.0000 C   0  0  0  0  0  0  0  0  0  0  0  0
    5.1432   -1.1521    0.0000 C   0  0  0  0  0  0  0  0  0  0  0  0
    4.4797   -2.3042    0.0000 C   0  0  0  0  0  0  0  0  0  0  0  0
    3.1476   -2.3042    0.0000 C   0  0  0  0  0  0  0  0  0  0  0  0
    0.0000   -1.8155    0.0000 O   0  0  0  0  0  0  0  0  0  0  0  0
  1  2  1  0  0  0  0
  1  9  1  0  0  0  0
  2  3  1  0  0  0  0
  2  9  1  0  0  0  0
  3  4  2  0  0  0  0
  3  8  1  0  0  0  0
  4  5  1  0  0  0  0
  5  6  2  0  0  0  0
  6  7  1  0  0  0  0
  7  8  2  0  0  0  0
M  END
>  <DSSTox_RID>
21286

>  <DSSTox_CID>
1286

>  <DSSTox_Generic_SID>
21286

>  <DSSTox_FileID>
1347_CPDBAS_v5d

>  <STRUCTURE_Formula>
C8H8O

>  <STRUCTURE_MolecularWeight>
120.1485

>  <STRUCTURE_ChemicalType>
defined organic

>  <STRUCTURE_TestedForm_DefinedOrganic>
parent

>  <STRUCTURE_Shown>
tested chemical

>  <TestSubstance_ChemicalName>
Styrene oxide

>  <TestSubstance_CASRN>
96-09-3

>  <TestSubstance_Description>
single chemical compound

>  <STRUCTURE_ChemicalName_IUPAC>
2-phenyloxirane

>  <STRUCTURE_SMILES>
C1C(C2=CC=CC=C2)O1

>  <STRUCTURE_Parent_SMILES>
C1C(C2=CC=CC=C2)O1

>  <STRUCTURE_InChI>
InChI=1/C8H8O/c1-2-4-7(5-3-1)8-6-9-8/h1-5,8H,6H2

>  <STRUCTURE_InChIKey>
AWMVMTVKBNGEAK-UHFFFAOYAM

>  <StudyType>
Carcinogenicity

>  <Endpoint>
TD50; Tumor Target Sites

>  <Species>
rat; mouse

>  <ActivityOutcome_CPDBAS_Mutagenicity>
active

>  <TD50_Rat_mg>
55.4

>  <TD50_Rat_mmol>
0.461

>  <ActivityScore_CPDBAS_Rat>
29

>  <TD50_Rat_Note>
TD50 is harmonic mean of more than one positive test

>  <TargetSites_Rat_Male>
stomach

>  <TargetSites_Rat_Female>
stomach

>  <ActivityOutcome_CPDBAS_Rat>
active

>  <TD50_Mouse_mg>
118

>  <TD50_Mouse_mmol>
0.982

>  <ActivityScore_CPDBAS_Mouse>
28

>  <TD50_Mouse_Note>
TD50 is harmonic mean of more than one positive test

>  <TargetSites_Mouse_Male>
stomach

>  <TargetSites_Mouse_Female>
stomach

>  <ActivityOutcome_CPDBAS_Mouse>
active

>  <ActivityOutcome_CPDBAS_SingleCellCall>
active

>  <ActivityOutcome_CPDBAS_MultiCellCall>
active

>  <ActivityOutcome_CPDBAS_MultiCellCall_Details>
multisex active; multispecies active

>  <ChemicalPage_URL>
http://potency.berkeley.edu/chempages/STYRENE%20OXIDE.html

$$$$



  7  7  0  0  0  0  0  0  0  0999 V2000
    4.4520   -2.5243    0.0000 O   0  0  0  0  0  0  0  0  0  0  0  0
    3.3746   -1.7407    0.0000 C   0  0  0  0  0  0  0  0  0  0  0  0
    2.1102   -2.1548    0.0000 O   0  0  0  0  0  0  0  0  0  0  0  0
    1.3311   -1.0774    0.0000 C   0  0  0  0  0  0  0  0  0  0  0  0
    0.0000   -1.0774    0.0000 O   0  0  0  0  0  0  0  0  0  0  0  0
    2.1102    0.0000    0.0000 C   0  0  0  0  0  0  0  0  0  0  0  0
    3.3746   -0.4140    0.0000 C   0  0  0  0  0  0  0  0  0  0  0  0
  1  2  2  0  0  0  0
  2  3  1  0  0  0  0
  2  7  1  0  0  0  0
  3  4  1  0  0  0  0
  4  5  2  0  0  0  0
  4  6  1  0  0  0  0
  6  7  1  0  0  0  0
M  END
>  <DSSTox_RID>
21287

>  <DSSTox_CID>
1287

>  <DSSTox_Generic_SID>
21287

>  <DSSTox_FileID>
1348_CPDBAS_v5d

>  <STRUCTURE_Formula>
C4H4O3

>  <STRUCTURE_MolecularWeight>
100.0728

>  <STRUCTURE_ChemicalType>
defined organic

>  <STRUCTURE_TestedForm_DefinedOrganic>
parent

>  <STRUCTURE_Shown>
tested chemical

>  <TestSubstance_ChemicalName>
Succinic anhydride

>  <TestSubstance_CASRN>
108-30-5

>  <TestSubstance_Description>
single chemical compound

>  <STRUCTURE_ChemicalName_IUPAC>
dihydrofuran-2,5-dione

>  <STRUCTURE_SMILES>
O=C1OC(=O)CC1

>  <STRUCTURE_Parent_SMILES>
O=C1OC(=O)CC1

>  <STRUCTURE_InChI>
InChI=1/C4H4O3/c5-3-1-2-4(6)7-3/h1-2H2

>  <STRUCTURE_InChIKey>
RINCXYDBBGOEEQ-UHFFFAOYAN

>  <StudyType>
Carcinogenicity

>  <Endpoint>
TD50; Tumor Target Sites

>  <Species>
rat; mouse

>  <ActivityOutcome_CPDBAS_Mutagenicity>
inactive

>  <ActivityScore_CPDBAS_Rat>
0

>  <TD50_Rat_Note>
no positive results

>  <TargetSites_Rat_Male>
no positive results

>  <TargetSites_Rat_Female>
no positive results

>  <ActivityOutcome_CPDBAS_Rat>
inactive

>  <ActivityScore_CPDBAS_Mouse>
0

>  <TD50_Mouse_Note>
no positive results

>  <TargetSites_Mouse_Male>
no positive results

>  <TargetSites_Mouse_Female>
no positive results

>  <ActivityOutcome_CPDBAS_Mouse>
inactive

>  <ActivityOutcome_CPDBAS_SingleCellCall>
inactive

>  <ActivityOutcome_CPDBAS_MultiCellCall>
inactive

>  <ActivityOutcome_CPDBAS_MultiCellCall_Details>
multisex inactive; multispecies inactive

>  <NTP_TechnicalReport>
TR 373

>  <ChemicalPage_URL>
http://potency.berkeley.edu/chempages/SUCCINIC%20ANHYDRIDE.html

$$$$



 23 24  0  0  1  0  0  0  0  0999 V2000
    6.1079   -4.0684    0.0000 C   0  0  1  0  0  0  0  0  0  0  0  0
    3.4587   -3.9948    0.0000 C   0  0  1  0  0  0  0  0  0  0  0  0
    6.5179   -5.3404    0.0000 C   0  0  2  0  0  0  0  0  0  0  0  0
    2.3023   -4.6571    0.0000 C   0  0  1  0  0  0  0  0  0  0  0  0
    7.1802   -3.2800    0.0000 O   0  0  0  0  0  0  0  0  0  0  0  0
    5.0146   -4.6781    0.0000 O   0  0  0  0  0  0  0  0  0  0  0  0
    1.1564   -3.9948    0.0000 C   0  0  2  0  0  0  0  0  0  0  0  0
    3.4587   -2.6597    0.0000 O   0  0  0  0  0  0  0  0  0  0  0  0
    7.8530   -5.3194    0.0000 C   0  0  1  0  0  0  0  0  0  0  0  0
    1.1564   -2.6597    0.0000 C   0  0  2  0  0  0  0  0  0  0  0  0
    8.2630   -4.0579    0.0000 C   0  0  1  0  0  0  0  0  0  0  0  0
    2.3023   -1.9974    0.0000 C   0  0  1  0  0  0  0  0  0  0  0  0
    6.0974   -2.8910    0.0000 C   0  0  0  0  0  0  0  0  0  0  0  0
    5.7399   -6.4127    0.0000 O   0  0  0  0  0  0  0  0  0  0  0  0
    2.3023   -5.9817    0.0000 O   0  0  0  0  0  0  0  0  0  0  0  0
    0.0000   -1.9974    0.0000 Cl  0  0  0  0  0  0  0  0  0  0  0  0
    0.0000   -4.6571    0.0000 O   0  0  0  0  0  0  0  0  0  0  0  0
    8.6204   -6.4022    0.0000 O   0  0  0  0  0  0  0  0  0  0  0  0
    9.5245   -3.6479    0.0000 C   0  0  0  0  0  0  0  0  0  0  0  0
    2.3023   -0.6623    0.0000 C   0  0  0  0  0  0  0  0  0  0  0  0
    5.1828   -2.1341    0.0000 Cl  0  0  0  0  0  0  0  0  0  0  0  0
   10.5127   -4.5415    0.0000 Cl  0  0  0  0  0  0  0  0  0  0  0  0
    1.1564    0.0000    0.0000 O   0  0  0  0  0  0  0  0  0  0  0  0
  1  3  1  0  0  0  0
  1  5  1  0  0  0  0
  1  6  1  6  0  0  0
  1 13  1  1  0  0  0
  2  6  1  6  0  0  0
  2  4  1  0  0  0  0
  2  8  1  0  0  0  0
  3  9  1  0  0  0  0
  3 14  1  6  0  0  0
  4  7  1  0  0  0  0
  4 15  1  6  0  0  0
  5 11  1  0  0  0  0
  7 17  1  1  0  0  0
  7 10  1  0  0  0  0
  8 12  1  0  0  0  0
  9 18  1  1  0  0  0
  9 11  1  0  0  0  0
 10 12  1  0  0  0  0
 10 16  1  1  0  0  0
 11 19  1  6  0  0  0
 12 20  1  1  0  0  0
 13 21  1  0  0  0  0
 19 22  1  0  0  0  0
 20 23  1  0  0  0  0
M  END
>  <DSSTox_RID>
40829

>  <DSSTox_CID>
20245

>  <DSSTox_Generic_SID>
40245

>  <DSSTox_FileID>
1349_CPDBAS_v5d

>  <STRUCTURE_Formula>
C12H18Cl3O8

>  <STRUCTURE_MolecularWeight>
397.6335

>  <STRUCTURE_ChemicalType>
defined organic

>  <STRUCTURE_TestedForm_DefinedOrganic>
parent

>  <STRUCTURE_Shown>
tested chemical

>  <TestSubstance_ChemicalName>
Sucralose

>  <TestSubstance_CASRN>
56038-13-2

>  <TestSubstance_Description>
single chemical compound

>  <ChemicalNote>
stereochem

>  <STRUCTURE_ChemicalName_IUPAC>
1,6-dichloro-1,6-dideoxy-beta-D-fructofuranosyl 4-chloro-4-deoxy-alpha-D-galactopyranoside

>  <STRUCTURE_SMILES>
O[C@@H]1[C@@](O[C@@H](O[C@H](CO)[C@@H]2Cl)[C@H](O)[C@H]2O)(CCl)O[C@H](CCl)[C@H]1O

>  <STRUCTURE_Parent_SMILES>
O[C@@H]1[C@@](O[C@@H](O[C@H](CO)[C@@H]2Cl)[C@H](O)[C@H]2O)(CCl)O[C@H](CCl)[C@H]1O

>  <STRUCTURE_InChI>
InChI=1/C12H19Cl3O8/c13-1-4-7(17)10(20)12(3-14,22-4)23-11-9(19)8(18)6(15)5(2-16)21-11/h4-11,16-20H,1-3H2/t4-,5-,6+,7-,8+,9-,10+,11-,12+/m1/s1

>  <STRUCTURE_InChIKey>
BAQAVOSOZGMPRM-QBMZZYIRBF

>  <StudyType>
Carcinogenicity

>  <Endpoint>
TD50; Tumor Target Sites

>  <Species>
mouse

>  <ActivityScore_CPDBAS_Mouse>
0

>  <TD50_Mouse_Note>
no positive results

>  <TargetSites_Mouse_Male>
no positive results

>  <TargetSites_Mouse_Female>
no positive results

>  <ActivityOutcome_CPDBAS_Mouse>
inactive

>  <ActivityOutcome_CPDBAS_SingleCellCall>
inactive

>  <ActivityOutcome_CPDBAS_MultiCellCall>
inactive

>  <ActivityOutcome_CPDBAS_MultiCellCall_Details>
multisex inactive

>  <Note_CPDBAS>
Mouse added v5a; chemical added v5a

>  <ChemicalPage_URL>
http://potency.berkeley.edu/chempages/SUCRALOSE.html

$$$$



 23 24  0  0  1  0  0  0  0  0999 V2000
    6.2931   -2.0154    0.0000 C   0  0  1  0  0  0  0  0  0  0  0  0
    3.9383   -3.4345    0.0000 C   0  0  1  0  0  0  0  0  0  0  0  0
    7.2597   -2.8998    0.0000 C   0  0  2  0  0  0  0  0  0  0  0  0
    3.2802   -4.5656    0.0000 C   0  0  1  0  0  0  0  0  0  0  0  0
    6.8278   -0.8226    0.0000 O   0  0  0  0  0  0  0  0  0  0  0  0
    5.6041   -3.4036    0.0000 O   0  0  0  0  0  0  0  0  0  0  0  0
    1.9640   -4.5656    0.0000 C   0  0  2  0  0  0  0  0  0  0  0  0
    3.2802   -2.2931    0.0000 O   0  0  0  0  0  0  0  0  0  0  0  0
    8.3908   -2.2519    0.0000 C   0  0  1  0  0  0  0  0  0  0  0  0
    1.3059   -3.4242    0.0000 C   0  0  1  0  0  0  0  0  0  0  0  0
    8.1234   -0.9666    0.0000 C   0  0  1  0  0  0  0  0  0  0  0  0
    1.9743   -2.2931    0.0000 C   0  0  1  0  0  0  0  0  0  0  0  0
    5.0592   -1.6144    0.0000 C   0  0  0  0  0  0  0  0  0  0  0  0
    7.1157   -4.2057    0.0000 O   0  0  0  0  0  0  0  0  0  0  0  0
    3.9280   -5.7070    0.0000 O   0  0  0  0  0  0  0  0  0  0  0  0
    1.3059   -5.7070    0.0000 O   0  0  0  0  0  0  0  0  0  0  0  0
    9.5939   -2.7866    0.0000 O   0  0  0  0  0  0  0  0  0  0  0  0
    0.0000   -3.4242    0.0000 O   0  0  0  0  0  0  0  0  0  0  0  0
    9.0078    0.0000    0.0000 C   0  0  0  0  0  0  0  0  0  0  0  0
    1.3162   -1.1620    0.0000 C   0  0  0  0  0  0  0  0  0  0  0  0
    4.8227   -0.4524    0.0000 O   0  0  0  0  0  0  0  0  0  0  0  0
   10.2828   -0.2674    0.0000 O   0  0  0  0  0  0  0  0  0  0  0  0
    0.0000   -1.1517    0.0000 O   0  0  0  0  0  0  0  0  0  0  0  0
  1  3  1  0  0  0  0
  1  5  1  0  0  0  0
  1  6  1  6  0  0  0
  1 13  1  1  0  0  0
  2  6  1  6  0  0  0
  2  4  1  0  0  0  0
  2  8  1  0  0  0  0
  3  9  1  0  0  0  0
  3 14  1  6  0  0  0
  4  7  1  0  0  0  0
  4 15  1  6  0  0  0
  5 11  1  0  0  0  0
  7 16  1  1  0  0  0
  7 10  1  0  0  0  0
  8 12  1  0  0  0  0
  9 17  1  1  0  0  0
  9 11  1  0  0  0  0
 10 12  1  0  0  0  0
 10 18  1  6  0  0  0
 11 19  1  6  0  0  0
 12 20  1  1  0  0  0
 13 21  1  0  0  0  0
 19 22  1  0  0  0  0
 20 23  1  0  0  0  0
M  END
>  <DSSTox_RID>
21288

>  <DSSTox_CID>
1288

>  <DSSTox_Generic_SID>
21288

>  <DSSTox_FileID>
1350_CPDBAS_v5d

>  <STRUCTURE_Formula>
C12H22O11

>  <STRUCTURE_MolecularWeight>
342.2965

>  <STRUCTURE_ChemicalType>
defined organic

>  <STRUCTURE_TestedForm_DefinedOrganic>
parent

>  <STRUCTURE_Shown>
tested chemical

>  <TestSubstance_ChemicalName>
Sucrose

>  <TestSubstance_CASRN>
57-50-1

>  <TestSubstance_Description>
single chemical compound

>  <ChemicalNote>
stereochem

>  <STRUCTURE_ChemicalName_IUPAC>
beta-D-fructofuranosyl alpha-D-glucopyranoside

>  <STRUCTURE_SMILES>
O[C@H]1[C@H](O[C@H](CO)[C@@H](O)[C@@H]1O)O[C@]2(CO)O[C@H](CO)[C@@H](O)[C@@H]2O

>  <STRUCTURE_Parent_SMILES>
O[C@H]1[C@H](O[C@H](CO)[C@@H](O)[C@@H]1O)O[C@]2(CO)O[C@H](CO)[C@@H](O)[C@@H]2O

>  <STRUCTURE_InChI>
InChI=1/C12H22O11/c13-1-4-6(16)8(18)9(19)11(21-4)23-12(3-15)10(20)7(17)5(2-14)22-12/h4-11,13-20H,1-3H2/t4-,5-,6-,7-,8+,9-,10+,11-,12+/m1/s1

>  <STRUCTURE_InChIKey>
CZMRCDWAGMRECN-UGDNZRGBBE

>  <StudyType>
Carcinogenicity

>  <Endpoint>
TD50; Tumor Target Sites

>  <Species>
mouse

>  <ActivityOutcome_CPDBAS_Mutagenicity>
inactive

>  <ActivityScore_CPDBAS_Mouse>
0

>  <TD50_Mouse_Note>
no positive results

>  <TargetSites_Mouse_Male>
no positive results

>  <TargetSites_Mouse_Female>
no positive results

>  <ActivityOutcome_CPDBAS_Mouse>
inactive

>  <ActivityOutcome_CPDBAS_SingleCellCall>
inactive

>  <ActivityOutcome_CPDBAS_MultiCellCall>
inactive

>  <ActivityOutcome_CPDBAS_MultiCellCall_Details>
multisex inactive

>  <ChemicalPage_URL>
http://potency.berkeley.edu/chempages/SUCROSE.html

$$$$



 59 60  0  0  1  0  0  0  0  0999 V2000
   10.4913   -9.2225    0.0000 C   0  0  0  0  0  0  0  0  0  0  0  0
   11.6843   -9.3172    0.0000 O   0  0  0  0  0  0  0  0  0  0  0  0
    9.8285  -10.2072    0.0000 C   0  0  0  0  0  0  0  0  0  0  0  0
    8.6165  -10.1125    0.0000 C   0  0  0  0  0  0  0  0  0  0  0  0
   10.3398  -11.2866    0.0000 C   0  0  0  0  0  0  0  0  0  0  0  0
    7.1772   -9.0710    0.0000 C   0  0  0  0  0  0  0  0  0  0  0  0
    8.3514   -8.9005    0.0000 O   0  0  0  0  0  0  0  0  0  0  0  0
    6.7417  -10.1883    0.0000 C   0  0  0  0  0  0  0  0  0  0  0  0
    5.5676  -10.3777    0.0000 C   0  0  0  0  0  0  0  0  0  0  0  0
    7.4992  -11.1351    0.0000 C   0  0  0  0  0  0  0  0  0  0  0  0
    3.7117   -7.8969    0.0000 C   0  0  0  0  0  0  0  0  0  0  0  0
    4.7533   -8.4839    0.0000 O   0  0  0  0  0  0  0  0  0  0  0  0
    2.6702   -8.5029    0.0000 C   0  0  0  0  0  0  0  0  0  0  0  0
    1.6286   -7.9158    0.0000 C   0  0  0  0  0  0  0  0  0  0  0  0
    2.6891   -9.6959    0.0000 C   0  0  0  0  0  0  0  0  0  0  0  0
    2.4619   -4.5450    0.0000 C   0  0  0  0  0  0  0  0  0  0  0  0
    2.4619   -5.9842    0.0000 O   0  0  0  0  0  0  0  0  0  0  0  0
    1.2309   -3.8443    0.0000 C   0  0  0  0  0  0  0  0  0  0  0  0
    1.2309   -2.4240    0.0000 C   0  0  0  0  0  0  0  0  0  0  0  0
    0.0000   -4.5639    0.0000 C   0  0  0  0  0  0  0  0  0  0  0  0
    5.1320   -0.6060    0.0000 C   0  0  0  0  0  0  0  0  0  0  0  0
    6.1925    0.0000    0.0000 O   0  0  0  0  0  0  0  0  0  0  0  0
    4.0905    0.0000    0.0000 C   0  0  0  0  0  0  0  0  0  0  0  0
   10.4345   -5.9274    0.0000 C   0  0  1  0  0  0  0  0  0  0  0  0
    7.4234   -5.9842    0.0000 C   0  0  1  0  0  0  0  0  0  0  0  0
   10.8511   -7.2909    0.0000 C   0  0  2  0  0  0  0  0  0  0  0  0
    6.1925   -6.7038    0.0000 C   0  0  1  0  0  0  0  0  0  0  0  0
   11.5896   -5.0941    0.0000 O   0  0  0  0  0  0  0  0  0  0  0  0
    9.0331   -6.8553    0.0000 O   0  0  0  0  0  0  0  0  0  0  0  0
    4.9237   -5.9842    0.0000 C   0  0  2  0  0  0  0  0  0  0  0  0
    7.4234   -4.5450    0.0000 O   0  0  0  0  0  0  0  0  0  0  0  0
   12.2903   -7.2909    0.0000 C   0  0  1  0  0  0  0  0  0  0  0  0
    4.9237   -4.5450    0.0000 C   0  0  1  0  0  0  0  0  0  0  0  0
   12.7448   -5.9274    0.0000 C   0  0  1  0  0  0  0  0  0  0  0  0
    6.1925   -3.8443    0.0000 C   0  0  1  0  0  0  0  0  0  0  0  0
    9.4876   -4.8669    0.0000 C   0  0  0  0  0  0  0  0  0  0  0  0
   10.0178   -8.4460    0.0000 O   0  0  0  0  0  0  0  0  0  0  0  0
    6.4198   -8.1430    0.0000 O   0  0  0  0  0  0  0  0  0  0  0  0
    3.6928   -6.7038    0.0000 O   0  0  0  0  0  0  0  0  0  0  0  0
   13.1425   -8.4460    0.0000 O   0  0  0  0  0  0  0  0  0  0  0  0
    3.6928   -3.8443    0.0000 O   0  0  0  0  0  0  0  0  0  0  0  0
   14.0894   -5.4918    0.0000 C   0  0  0  0  0  0  0  0  0  0  0  0
    6.1925   -2.4050    0.0000 C   0  0  0  0  0  0  0  0  0  0  0  0
    9.8853   -3.6360    0.0000 O   0  0  0  0  0  0  0  0  0  0  0  0
   15.1499   -6.4387    0.0000 O   0  0  0  0  0  0  0  0  0  0  0  0
    5.1320   -1.7990    0.0000 O   0  0  0  0  0  0  0  0  0  0  0  0
   11.0594   -3.3898    0.0000 C   0  0  0  0  0  0  0  0  0  0  0  0
   11.4192   -2.2535    0.0000 O   0  0  0  0  0  0  0  0  0  0  0  0
   11.8548   -4.2988    0.0000 C   0  0  0  0  0  0  0  0  0  0  0  0
   14.3166   -8.7301    0.0000 C   0  0  0  0  0  0  0  0  0  0  0  0
   15.1309   -7.8590    0.0000 O   0  0  0  0  0  0  0  0  0  0  0  0
   14.6385   -9.8853    0.0000 C   0  0  0  0  0  0  0  0  0  0  0  0
   13.8053  -10.7375    0.0000 C   0  0  0  0  0  0  0  0  0  0  0  0
   15.7937  -10.1693    0.0000 C   0  0  0  0  0  0  0  0  0  0  0  0
   16.5133   -5.9842    0.0000 C   0  0  0  0  0  0  0  0  0  0  0  0
   16.7974   -4.6018    0.0000 O   0  0  0  0  0  0  0  0  0  0  0  0
   17.5738   -6.9500    0.0000 C   0  0  0  0  0  0  0  0  0  0  0  0
   17.2898   -8.3514    0.0000 C   0  0  0  0  0  0  0  0  0  0  0  0
   18.9373   -6.4955    0.0000 C   0  0  0  0  0  0  0  0  0  0  0  0
  1  2  2  0  0  0  0
  1  3  1  0  0  0  0
  1 37  1  0  0  0  0
  3  4  1  0  0  0  0
  3  5  1  0  0  0  0
  6  7  2  0  0  0  0
  6  8  1  0  0  0  0
  6 38  1  0  0  0  0
  8  9  1  0  0  0  0
  8 10  1  0  0  0  0
 11 12  2  0  0  0  0
 11 13  1  0  0  0  0
 11 39  1  0  0  0  0
 13 14  1  0  0  0  0
 13 15  1  0  0  0  0
 16 17  2  0  0  0  0
 16 18  1  0  0  0  0
 16 41  1  0  0  0  0
 18 19  1  0  0  0  0
 18 20  1  0  0  0  0
 21 22  2  0  0  0  0
 21 23  1  0  0  0  0
 21 46  1  0  0  0  0
 24 26  1  0  0  0  0
 24 28  1  0  0  0  0
 24 29  1  6  0  0  0
 24 36  1  1  0  0  0
 25 29  1  6  0  0  0
 25 27  1  0  0  0  0
 25 31  1  0  0  0  0
 26 32  1  0  0  0  0
 26 37  1  6  0  0  0
 27 30  1  0  0  0  0
 27 38  1  6  0  0  0
 28 34  1  0  0  0  0
 30 39  1  1  0  0  0
 30 33  1  0  0  0  0
 31 35  1  0  0  0  0
 32 40  1  1  0  0  0
 32 34  1  0  0  0  0
 33 35  1  0  0  0  0
 33 41  1  6  0  0  0
 34 42  1  6  0  0  0
 35 43  1  1  0  0  0
 36 44  1  0  0  0  0
 40 50  1  0  0  0  0
 42 45  1  0  0  0  0
 43 46  1  0  0  0  0
 44 47  1  0  0  0  0
 45 55  1  0  0  0  0
 47 48  2  0  0  0  0
 47 49  1  0  0  0  0
 50 51  2  0  0  0  0
 50 52  1  0  0  0  0
 52 53  1  0  0  0  0
 52 54  1  0  0  0  0
 55 56  2  0  0  0  0
 55 57  1  0  0  0  0
 57 58  1  0  0  0  0
 57 59  1  0  0  0  0
M  END
>  <DSSTox_RID>
40830

>  <DSSTox_CID>
7035

>  <DSSTox_Generic_SID>
27035

>  <DSSTox_FileID>
1351_CPDBAS_v5d

>  <STRUCTURE_Formula>
C40H62O19

>  <STRUCTURE_MolecularWeight>
846.9089

>  <STRUCTURE_ChemicalType>
defined organic

>  <STRUCTURE_TestedForm_DefinedOrganic>
parent

>  <STRUCTURE_Shown>
tested chemical

>  <TestSubstance_ChemicalName>
Sucrose acetate isobutyrate

>  <TestSubstance_CASRN>
126-13-6

>  <TestSubstance_Description>
single chemical compound

>  <ChemicalNote>
stereochem

>  <STRUCTURE_ChemicalName_IUPAC>
1-O-acetyl-3,4,6-tris-O-(2-methylpropanoyl)-beta-D-fructofuranosyl 6-O-acetyl-2,3,4-tris-O-(2-methylpropanoyl)-alpha-D-glucopyranoside

>  <STRUCTURE_SMILES>
O=C(O[C@@H]1[C@@](O[C@@H](O[C@H](COC(C)=O)[C@H]2OC(C(C)C)=O)[C@H](OC(C(C)C)=O)[C@H]2OC(C(C)C)=O)(COC(C)=O)O[C@H](COC(C(C)C)=O)[C@H]1OC(C(C)C)=O)C(C)C

>  <STRUCTURE_Parent_SMILES>
O=C(O[C@@H]1[C@@](O[C@@H](O[C@H](COC(C)=O)[C@H]2OC(C(C)C)=O)[C@H](OC(C(C)C)=O)[C@H]2OC(C(C)C)=O)(COC(C)=O)O[C@H](COC(C(C)C)=O)[C@H]1OC(C(C)C)=O)C(C)C

>  <STRUCTURE_InChI>
InChI=1/C40H62O19/c1-18(2)33(43)50-16-27-29(54-35(45)20(5)6)32(57-38(48)23(11)12)40(58-27,17-51-25(14)42)59-39-31(56-37(47)22(9)10)30(55-36(46)21(7)8)28(53-34(44)19(3)4)26(52-39)15-49-24(13)41/h18-23,26-32,39H,15-17H2,1-14H3/t26-,27-,28-,29-,30+,31-,32+,39-,40+/m1/s1

>  <STRUCTURE_InChIKey>
UVGUPMLLGBCFEJ-SWTLDUCYBE

>  <StudyType>
Carcinogenicity

>  <Endpoint>
TD50; Tumor Target Sites

>  <Species>
rat; mouse

>  <ActivityScore_CPDBAS_Rat>
0

>  <TD50_Rat_Note>
no positive results

>  <TargetSites_Rat_Male>
no positive results

>  <TargetSites_Rat_Female>
no positive results

>  <ActivityOutcome_CPDBAS_Rat>
inactive

>  <ActivityScore_CPDBAS_Mouse>
0

>  <TD50_Mouse_Note>
no positive results

>  <TargetSites_Mouse_Male>
no positive results

>  <TargetSites_Mouse_Female>
no positive results

>  <ActivityOutcome_CPDBAS_Mouse>
inactive

>  <ActivityOutcome_CPDBAS_SingleCellCall>
inactive

>  <ActivityOutcome_CPDBAS_MultiCellCall>
inactive

>  <ActivityOutcome_CPDBAS_MultiCellCall_Details>
multisex inactive; multispecies inactive

>  <Note_CPDBAS>
Rat added v5a; Mouse added v5a; chemical added v5a

>  <ChemicalPage_URL>
http://potency.berkeley.edu/chempages/SUCROSE%20ACETATE%20ISOBUTYRATE.html

$$$$



 12 11  0  0  0  0  0  0  0  0999 V2000
    2.3006   -3.9862    0.0000 S   0  0  0  0  0  0  0  0  0  0  0  0
    2.3006   -2.6598    0.0000 C   0  0  0  0  0  0  0  0  0  0  0  0
    1.1537   -1.9897    0.0000 N   0  0  0  0  0  0  0  0  0  0  0  0
    1.1537   -0.6632    0.0000 C   0  0  0  0  0  0  0  0  0  0  0  0
    0.0000    0.0000    0.0000 C   0  0  0  0  0  0  0  0  0  0  0  0
    0.0000   -2.6598    0.0000 C   0  0  0  0  0  0  0  0  0  0  0  0
    0.0000   -3.9862    0.0000 C   0  0  0  0  0  0  0  0  0  0  0  0
    3.4543   -1.9897    0.0000 S   0  0  0  0  0  0  0  0  0  0  0  0
    4.6080   -2.6598    0.0000 C   0  0  0  0  0  0  0  0  0  0  0  0
    5.7548   -1.9897    0.0000 C   0  0  0  0  0  0  0  0  0  0  0  0
    5.7548   -0.6632    0.0000 C   0  0  0  0  0  0  0  0  0  0  0  0
    6.9086   -2.6598    0.0000 Cl  0  0  0  0  0  0  0  0  0  0  0  0
  1  2  2  0  0  0  0
  2  3  1  0  0  0  0
  2  8  1  0  0  0  0
  3  4  1  0  0  0  0
  3  6  1  0  0  0  0
  4  5  1  0  0  0  0
  6  7  1  0  0  0  0
  8  9  1  0  0  0  0
  9 10  1  0  0  0  0
 10 11  2  0  0  0  0
 10 12  1  0  0  0  0
M  END
>  <DSSTox_RID>
21289

>  <DSSTox_CID>
1289

>  <DSSTox_Generic_SID>
21289

>  <DSSTox_FileID>
1352_CPDBAS_v5d

>  <STRUCTURE_Formula>
C8H14ClNS2

>  <STRUCTURE_MolecularWeight>
223.7865

>  <STRUCTURE_ChemicalType>
defined organic

>  <STRUCTURE_TestedForm_DefinedOrganic>
parent

>  <STRUCTURE_Shown>
tested chemical

>  <TestSubstance_ChemicalName>
Sulfallate

>  <TestSubstance_CASRN>
95-06-7

>  <TestSubstance_Description>
single chemical compound

>  <STRUCTURE_ChemicalName_IUPAC>
2-chloroprop-2-en-1-yl diethyldithiocarbamate

>  <STRUCTURE_SMILES>
S=C(N(CC)CC)SCC(=C)Cl

>  <STRUCTURE_Parent_SMILES>
S=C(N(CC)CC)SCC(=C)Cl

>  <STRUCTURE_InChI>
InChI=1/C8H14ClNS2/c1-4-10(5-2)8(11)12-6-7(3)9/h3-6H2,1-2H3

>  <STRUCTURE_InChIKey>
XJCLWVXTCRQIDI-UHFFFAOYAD

>  <StudyType>
Carcinogenicity

>  <Endpoint>
TD50; Tumor Target Sites

>  <Species>
rat; mouse

>  <ActivityOutcome_CPDBAS_Mutagenicity>
active

>  <TD50_Rat_mg>
26.1

>  <TD50_Rat_mmol>
0.117

>  <ActivityScore_CPDBAS_Rat>
35

>  <TD50_Rat_Note>
TD50 is harmonic mean of more than one positive test

>  <TargetSites_Rat_Male>
stomach

>  <TargetSites_Rat_Female>
mammary gland

>  <ActivityOutcome_CPDBAS_Rat>
active

>  <TD50_Mouse_mg>
42.2

>  <TD50_Mouse_mmol>
0.189

>  <ActivityScore_CPDBAS_Mouse>
36

>  <TD50_Mouse_Note>
TD50 is harmonic mean of more than one positive test

>  <TargetSites_Mouse_Male>
lung

>  <TargetSites_Mouse_Female>
mammary gland

>  <ActivityOutcome_CPDBAS_Mouse>
active

>  <ActivityOutcome_CPDBAS_SingleCellCall>
active

>  <ActivityOutcome_CPDBAS_MultiCellCall>
active

>  <ActivityOutcome_CPDBAS_MultiCellCall_Details>
multisite active; multisex active; multispecies active

>  <NTP_TechnicalReport>
TR 115

>  <ChemicalPage_URL>
http://potency.berkeley.edu/chempages/SULFALLATE.html

$$$$



 19 20  0  0  0  0  0  0  0  0999 V2000
    3.8139   -4.1203    0.0000 O   0  0  0  0  0  0  0  0  0  0  0  0
    2.6609   -3.4592    0.0000 S   0  0  0  0  0  0  0  0  0  0  0  0
    1.5078   -2.7899    0.0000 O   0  0  0  0  0  0  0  0  0  0  0  0
    1.9916   -4.6041    0.0000 C   0  0  0  0  0  0  0  0  0  0  0  0
    0.6612   -4.6041    0.0000 C   0  0  0  0  0  0  0  0  0  0  0  0
    0.0000   -5.7572    0.0000 C   0  0  0  0  0  0  0  0  0  0  0  0
    0.6612   -6.9102    0.0000 C   0  0  0  0  0  0  0  0  0  0  0  0
    1.9916   -6.9102    0.0000 C   0  0  0  0  0  0  0  0  0  0  0  0
    2.6609   -5.7572    0.0000 C   0  0  0  0  0  0  0  0  0  0  0  0
    0.0000   -8.0633    0.0000 N   0  0  0  0  0  0  0  0  0  0  0  0
    3.3221   -2.3061    0.0000 N   0  0  0  0  0  0  0  0  0  0  0  0
    4.6525   -2.3061    0.0000 C   0  0  0  0  0  0  0  0  0  0  0  0
    5.3218   -1.1531    0.0000 N   0  0  0  0  0  0  0  0  0  0  0  0
    6.6522   -1.1531    0.0000 C   0  0  0  0  0  0  0  0  0  0  0  0
    7.3134   -2.3061    0.0000 C   0  0  0  0  0  0  0  0  0  0  0  0
    6.6522   -3.4592    0.0000 C   0  0  0  0  0  0  0  0  0  0  0  0
    5.3218   -3.4592    0.0000 N   0  0  0  0  0  0  0  0  0  0  0  0
    7.3134   -4.6041    0.0000 C   0  0  0  0  0  0  0  0  0  0  0  0
    7.3134    0.0000    0.0000 C   0  0  0  0  0  0  0  0  0  0  0  0
  1  2  2  0  0  0  0
  2  3  2  0  0  0  0
  2  4  1  0  0  0  0
  2 11  1  0  0  0  0
  4  5  2  0  0  0  0
  4  9  1  0  0  0  0
  5  6  1  0  0  0  0
  6  7  2  0  0  0  0
  7  8  1  0  0  0  0
  7 10  1  0  0  0  0
  8  9  2  0  0  0  0
 11 12  1  0  0  0  0
 12 13  2  0  0  0  0
 12 17  1  0  0  0  0
 13 14  1  0  0  0  0
 14 15  2  0  0  0  0
 14 19  1  0  0  0  0
 15 16  1  0  0  0  0
 16 17  2  0  0  0  0
 16 18  1  0  0  0  0
M  END
>  <DSSTox_RID>
21290

>  <DSSTox_CID>
1290

>  <DSSTox_Generic_SID>
21290

>  <DSSTox_FileID>
1353_CPDBAS_v5d

>  <STRUCTURE_Formula>
C12H14N4O2S

>  <STRUCTURE_MolecularWeight>
278.3302

>  <STRUCTURE_ChemicalType>
defined organic

>  <STRUCTURE_TestedForm_DefinedOrganic>
parent

>  <STRUCTURE_Shown>
tested chemical

>  <TestSubstance_ChemicalName>
Sulfamethazine

>  <TestSubstance_CASRN>
57-68-1

>  <TestSubstance_Description>
single chemical compound

>  <STRUCTURE_ChemicalName_IUPAC>
4-amino-N-(4,6-dimethylpyrimidin-2-yl)benzenesulfonamide

>  <STRUCTURE_SMILES>
O=S(=O)(C1=CC=C(C=C1)N)NC2=NC(=CC(=N2)C)C

>  <STRUCTURE_Parent_SMILES>
O=S(=O)(C1=CC=C(C=C1)N)NC2=NC(=CC(=N2)C)C

>  <STRUCTURE_InChI>
InChI=1/C12H14N4O2S/c1-8-7-9(2)15-12(14-8)16-19(17,18)11-5-3-10(13)4-6-11/h3-7H,13H2,1-2H3,(H,14,15,16)/f/h16H

>  <STRUCTURE_InChIKey>
ASWVTGNCAZCNNR-WYUMXYHSCK

>  <StudyType>
Carcinogenicity

>  <Endpoint>
TD50; Tumor Target Sites

>  <Species>
mouse

>  <ActivityOutcome_CPDBAS_Mutagenicity>
inactive

>  <TD50_Mouse_mg>
1510

>  <TD50_Mouse_mmol>
5.43

>  <ActivityScore_CPDBAS_Mouse>
20

>  <TD50_Mouse_Note>
TD50 is harmonic mean of more than one positive test

>  <TargetSites_Mouse_Male>
thyroid gland

>  <TargetSites_Mouse_Female>
thyroid gland

>  <ActivityOutcome_CPDBAS_Mouse>
active

>  <ActivityOutcome_CPDBAS_SingleCellCall>
active

>  <ActivityOutcome_CPDBAS_MultiCellCall>
active

>  <ActivityOutcome_CPDBAS_MultiCellCall_Details>
multisex active

>  <ChemicalPage_URL>
http://potency.berkeley.edu/chempages/SULFAMETHAZINE.html

$$$$



 18 19  0  0  0  0  0  0  0  0999 V2000
    3.9690   -4.1553    0.0000 O   0  0  0  0  0  0  0  0  0  0  0  0
    5.1192   -3.4911    0.0000 S   0  0  0  0  0  0  0  0  0  0  0  0
    6.2694   -2.8269    0.0000 O   0  0  0  0  0  0  0  0  0  0  0  0
    5.7834   -4.6413    0.0000 C   0  0  0  0  0  0  0  0  0  0  0  0
    5.1192   -5.7996    0.0000 C   0  0  0  0  0  0  0  0  0  0  0  0
    5.7834   -6.9498    0.0000 C   0  0  0  0  0  0  0  0  0  0  0  0
    7.1118   -6.9498    0.0000 C   0  0  0  0  0  0  0  0  0  0  0  0
    7.7760   -5.7996    0.0000 C   0  0  0  0  0  0  0  0  0  0  0  0
    7.1118   -4.6413    0.0000 C   0  0  0  0  0  0  0  0  0  0  0  0
    7.7760   -8.1001    0.0000 N   0  0  0  0  0  0  0  0  0  0  0  0
    4.4550   -2.3409    0.0000 N   0  0  0  0  0  0  0  0  0  0  0  0
    3.1266   -2.3409    0.0000 C   0  0  0  0  0  0  0  0  0  0  0  0
    2.3409   -1.2636    0.0000 C   0  0  0  0  0  0  0  0  0  0  0  0
    1.0773   -1.6767    0.0000 C   0  0  0  0  0  0  0  0  0  0  0  0
    1.0773   -3.0051    0.0000 N   0  0  0  0  0  0  0  0  0  0  0  0
    2.3409   -3.4182    0.0000 O   0  0  0  0  0  0  0  0  0  0  0  0
    0.0000   -0.8910    0.0000 C   0  0  0  0  0  0  0  0  0  0  0  0
    2.7540    0.0000    0.0000 C   0  0  0  0  0  0  0  0  0  0  0  0
  1  2  2  0  0  0  0
  2  3  2  0  0  0  0
  2  4  1  0  0  0  0
  2 11  1  0  0  0  0
  4  5  2  0  0  0  0
  4  9  1  0  0  0  0
  5  6  1  0  0  0  0
  6  7  2  0  0  0  0
  7  8  1  0  0  0  0
  7 10  1  0  0  0  0
  8  9  2  0  0  0  0
 11 12  1  0  0  0  0
 12 13  2  0  0  0  0
 12 16  1  0  0  0  0
 13 14  1  0  0  0  0
 13 18  1  0  0  0  0
 14 15  2  0  0  0  0
 14 17  1  0  0  0  0
 15 16  1  0  0  0  0
M  END
>  <DSSTox_RID>
21292

>  <DSSTox_CID>
1292

>  <DSSTox_Generic_SID>
21292

>  <DSSTox_FileID>
1355_CPDBAS_v5d

>  <STRUCTURE_Formula>
C11H13N3O3S

>  <STRUCTURE_MolecularWeight>
267.3042

>  <STRUCTURE_ChemicalType>
defined organic

>  <STRUCTURE_TestedForm_DefinedOrganic>
parent

>  <STRUCTURE_Shown>
tested chemical

>  <TestSubstance_ChemicalName>
Sulfisoxazole

>  <TestSubstance_CASRN>
127-69-5

>  <TestSubstance_Description>
single chemical compound

>  <STRUCTURE_ChemicalName_IUPAC>
4-amino-N-(3,4-dimethylisoxazol-5-yl)benzenesulfonamide

>  <STRUCTURE_SMILES>
C2=C(N)C=CC(S(=O)(=O)NC1ON=C(C)C=1C)=C2

>  <STRUCTURE_Parent_SMILES>
C2=C(N)C=CC(S(=O)(=O)NC1ON=C(C)C=1C)=C2

>  <STRUCTURE_InChI>
InChI=1/C11H13N3O3S/c1-7-8(2)13-17-11(7)14-18(15,16)10-5-3-9(12)4-6-10/h3-6,14H,12H2,1-2H3

>  <STRUCTURE_InChIKey>
NHUHCSRWZMLRLA-UHFFFAOYAP

>  <StudyType>
Carcinogenicity

>  <Endpoint>
TD50; Tumor Target Sites

>  <Species>
rat; mouse

>  <ActivityOutcome_CPDBAS_Mutagenicity>
inactive

>  <ActivityScore_CPDBAS_Rat>
0

>  <TD50_Rat_Note>
no positive results

>  <TargetSites_Rat_Male>
no positive results

>  <TargetSites_Rat_Female>
no positive results

>  <ActivityOutcome_CPDBAS_Rat>
inactive

>  <ActivityScore_CPDBAS_Mouse>
0

>  <TD50_Mouse_Note>
no positive results

>  <TargetSites_Mouse_Male>
no positive results

>  <TargetSites_Mouse_Female>
no positive results

>  <ActivityOutcome_CPDBAS_Mouse>
inactive

>  <ActivityOutcome_CPDBAS_SingleCellCall>
inactive

>  <ActivityOutcome_CPDBAS_MultiCellCall>
inactive

>  <ActivityOutcome_CPDBAS_MultiCellCall_Details>
multisex inactive; multispecies inactive

>  <NTP_TechnicalReport>
TR 138

>  <ChemicalPage_URL>
http://potency.berkeley.edu/chempages/SULFISOXAZOLE.html

$$$$



  7  7  0  0  0  0  0  0  0  0999 V2000
    1.1893   -3.1857    0.0000 O   0  0  0  0  0  0  0  0  0  0  0  0
    1.3310   -1.8647    0.0000 S   0  0  0  0  0  0  0  0  0  0  0  0
    0.0000   -1.8647    0.0000 O   0  0  0  0  0  0  0  0  0  0  0  0
    1.1893   -0.5403    0.0000 C   0  0  0  0  0  0  0  0  0  0  0  0
    2.4049    0.0000    0.0000 C   0  0  0  0  0  0  0  0  0  0  0  0
    3.2944   -0.9883    0.0000 C   0  0  0  0  0  0  0  0  0  0  0  0
    2.6290   -2.1414    0.0000 C   0  0  0  0  0  0  0  0  0  0  0  0
  1  2  2  0  0  0  0
  2  3  2  0  0  0  0
  2  4  1  0  0  0  0
  2  7  1  0  0  0  0
  4  5  1  0  0  0  0
  5  6  2  0  0  0  0
  6  7  1  0  0  0  0
M  END
>  <DSSTox_RID>
21294

>  <DSSTox_CID>
1294

>  <DSSTox_Generic_SID>
21294

>  <DSSTox_FileID>
1357_CPDBAS_v5d

>  <STRUCTURE_Formula>
C4H6O2S

>  <STRUCTURE_MolecularWeight>
118.1542

>  <STRUCTURE_ChemicalType>
defined organic

>  <STRUCTURE_TestedForm_DefinedOrganic>
parent

>  <STRUCTURE_Shown>
tested chemical

>  <TestSubstance_ChemicalName>
3-Sulfolene

>  <TestSubstance_CASRN>
77-79-2

>  <TestSubstance_Description>
single chemical compound

>  <STRUCTURE_ChemicalName_IUPAC>
2,5-dihydrothiophene 1,1-dioxide

>  <STRUCTURE_SMILES>
O=S1(=O)CC=CC1

>  <STRUCTURE_Parent_SMILES>
O=S1(=O)CC=CC1

>  <STRUCTURE_InChI>
InChI=1/C4H6O2S/c5-7(6)3-1-2-4-7/h1-2H,3-4H2

>  <STRUCTURE_InChIKey>
MBDNRNMVTZADMQ-UHFFFAOYAO

>  <StudyType>
Carcinogenicity

>  <Endpoint>
TD50; Tumor Target Sites

>  <Species>
rat; mouse

>  <ActivityOutcome_CPDBAS_Mutagenicity>
inactive

>  <ActivityScore_CPDBAS_Rat>
0

>  <TD50_Rat_Note>
no positive results

>  <TargetSites_Rat_Male>
no positive results

>  <TargetSites_Rat_Female>
no positive results

>  <ActivityOutcome_CPDBAS_Rat>
inactive

>  <ActivityScore_CPDBAS_Mouse>
0

>  <TD50_Mouse_Note>
no positive results

>  <TargetSites_Mouse_Male>
no positive results

>  <TargetSites_Mouse_Female>
no positive results

>  <ActivityOutcome_CPDBAS_Mouse>
inactive

>  <ActivityOutcome_CPDBAS_SingleCellCall>
inactive

>  <ActivityOutcome_CPDBAS_MultiCellCall>
inactive

>  <ActivityOutcome_CPDBAS_MultiCellCall_Details>
multisex inactive; multispecies inactive

>  <NTP_TechnicalReport>
TR 102

>  <ChemicalPage_URL>
http://potency.berkeley.edu/chempages/3-SULFOLENE.html

$$$$



 23 24  0  0  0  0  0  0  0  0999 V2000
    0.0000   -2.3040    0.0000 C   0  0  0  0  0  0  0  0  0  0  0  0
    0.6682   -1.1520    0.0000 C   0  0  0  0  0  0  0  0  0  0  0  0
    0.0000    0.0000    0.0000 O   0  0  0  0  0  0  0  0  0  0  0  0
    1.9929   -1.1520    0.0000 N   0  0  0  0  0  0  0  0  0  0  0  0
    2.6611   -2.3040    0.0000 C   0  0  0  0  0  0  0  0  0  0  0  0
    3.9859   -2.3040    0.0000 C   0  0  0  0  0  0  0  0  0  0  0  0
    4.6540   -3.4560    0.0000 C   0  0  0  0  0  0  0  0  0  0  0  0
    3.9859   -4.6080    0.0000 C   0  0  0  0  0  0  0  0  0  0  0  0
    2.6611   -4.6080    0.0000 C   0  0  0  0  0  0  0  0  0  0  0  0
    1.9929   -3.4560    0.0000 C   0  0  0  0  0  0  0  0  0  0  0  0
    4.6540   -5.7600    0.0000 S   0  0  0  0  0  0  0  0  0  0  0  0
    3.5021   -6.4281    0.0000 O   0  0  0  0  0  0  0  0  0  0  0  0
    5.8060   -5.0918    0.0000 O   0  0  0  0  0  0  0  0  0  0  0  0
    5.3222   -6.9120    0.0000 C   0  0  0  0  0  0  0  0  0  0  0  0
    4.6540   -8.0639    0.0000 C   0  0  0  0  0  0  0  0  0  0  0  0
    5.3222   -9.2159    0.0000 C   0  0  0  0  0  0  0  0  0  0  0  0
    6.6470   -9.2159    0.0000 C   0  0  0  0  0  0  0  0  0  0  0  0
    7.3151  -10.3679    0.0000 N   0  0  0  0  0  0  0  0  0  0  0  0
    8.6515  -10.3679    0.0000 C   0  0  0  0  0  0  0  0  0  0  0  0
    9.3081  -11.5199    0.0000 C   0  0  0  0  0  0  0  0  0  0  0  0
    9.3081   -9.2159    0.0000 O   0  0  0  0  0  0  0  0  0  0  0  0
    7.3151   -8.0639    0.0000 C   0  0  0  0  0  0  0  0  0  0  0  0
    6.6470   -6.9120    0.0000 C   0  0  0  0  0  0  0  0  0  0  0  0
  1  2  1  0  0  0  0
  2  3  2  0  0  0  0
  2  4  1  0  0  0  0
  4  5  1  0  0  0  0
  5  6  2  0  0  0  0
  5 10  1  0  0  0  0
  6  7  1  0  0  0  0
  7  8  2  0  0  0  0
  8  9  1  0  0  0  0
  8 11  1  0  0  0  0
  9 10  2  0  0  0  0
 11 12  2  0  0  0  0
 11 13  2  0  0  0  0
 11 14  1  0  0  0  0
 14 15  2  0  0  0  0
 14 23  1  0  0  0  0
 15 16  1  0  0  0  0
 16 17  2  0  0  0  0
 17 18  1  0  0  0  0
 17 22  1  0  0  0  0
 18 19  1  0  0  0  0
 19 20  1  0  0  0  0
 19 21  2  0  0  0  0
 22 23  2  0  0  0  0
M  END
>  <DSSTox_RID>
21295

>  <DSSTox_CID>
1295

>  <DSSTox_Generic_SID>
21295

>  <DSSTox_FileID>
1358_CPDBAS_v5d

>  <STRUCTURE_Formula>
C16H16N2O4S

>  <STRUCTURE_MolecularWeight>
332.3734

>  <STRUCTURE_ChemicalType>
defined organic

>  <STRUCTURE_TestedForm_DefinedOrganic>
parent

>  <STRUCTURE_Shown>
tested chemical

>  <TestSubstance_ChemicalName>
4,4'-Sulfonylbisacetanilide

>  <TestSubstance_CASRN>
77-46-3

>  <TestSubstance_Description>
single chemical compound

>  <STRUCTURE_ChemicalName_IUPAC>
N,N'-(sulfonyldibenzene-4,1-diyl)diacetamide

>  <STRUCTURE_SMILES>
CC(=O)NC1=CC=C(C=C1)S(=O)(=O)C2=CC=C(NC(C)=O)C=C2

>  <STRUCTURE_Parent_SMILES>
CC(=O)NC1=CC=C(C=C1)S(=O)(=O)C2=CC=C(NC(C)=O)C=C2

>  <STRUCTURE_InChI>
InChI=1/C16H16N2O4S/c1-11(19)17-13-3-7-15(8-4-13)23(21,22)16-9-5-14(6-10-16)18-12(2)20/h3-10H,1-2H3,(H,17,19)(H,18,20)/f/h17-18H

>  <STRUCTURE_InChIKey>
AMTPYFGPPVFBBI-JLGFQASFCQ

>  <StudyType>
Carcinogenicity

>  <Endpoint>
TD50; Tumor Target Sites

>  <Species>
rat

>  <TD50_Rat_mg>
55.6

>  <TD50_Rat_mmol>
0.167

>  <ActivityScore_CPDBAS_Rat>
34

>  <TD50_Rat_Note>
no positive results are statistically significant

>  <TargetSites_Rat_Female>
mammary gland

>  <ActivityOutcome_CPDBAS_Rat>
active

>  <ActivityOutcome_CPDBAS_SingleCellCall>
active

>  <ChemicalPage_URL>
http://potency.berkeley.edu/chempages/4,4'-SULFONYLBISACETANILIDE.html

$$$$



 26 28  0  0  0  0  0  0  0  0999 V2000
    5.4705   -4.5881    0.0000 C   0  0  0  0  0  0  0  0  0  0  0  0
    3.4117   -3.8823    0.0000 C   0  0  0  0  0  0  0  0  0  0  0  0
    4.7058   -3.5293    0.0000 C   0  0  0  0  0  0  0  0  0  0  0  0
    3.4117   -5.2940    0.0000 C   0  0  0  0  0  0  0  0  0  0  0  0
    4.7058   -5.6469    0.0000 C   0  0  0  0  0  0  0  0  0  0  0  0
    2.2352   -3.2352    0.0000 C   0  0  0  0  0  0  0  0  0  0  0  0
    2.2352   -5.8822    0.0000 C   0  0  0  0  0  0  0  0  0  0  0  0
    1.1176   -5.2940    0.0000 C   0  0  0  0  0  0  0  0  0  0  0  0
    1.1176   -3.8823    0.0000 C   0  0  0  0  0  0  0  0  0  0  0  0
    4.2352   -1.2941    0.0000 C   0  0  0  0  0  0  0  0  0  0  0  0
    4.6470    0.0000    0.0000 O   0  0  0  0  0  0  0  0  0  0  0  0
    2.9411   -1.5294    0.0000 O   0  0  0  0  0  0  0  0  0  0  0  0
    5.1175   -2.2352    0.0000 C   0  0  0  0  0  0  0  0  0  0  0  0
    0.0000   -3.2352    0.0000 F   0  0  0  0  0  0  0  0  0  0  0  0
    6.8234   -4.5881    0.0000 C   0  0  0  0  0  0  0  0  0  0  0  0
    5.1175   -6.8822    0.0000 C   0  0  0  0  0  0  0  0  0  0  0  0
    2.0000   -8.5881    0.0000 C   0  0  0  0  0  0  0  0  0  0  0  0
    2.4117   -9.8233    0.0000 C   0  0  0  0  0  0  0  0  0  0  0  0
    3.7058  -10.1174    0.0000 C   0  0  0  0  0  0  0  0  0  0  0  0
    4.5881   -9.1763    0.0000 C   0  0  0  0  0  0  0  0  0  0  0  0
    4.2352   -7.8822    0.0000 C   0  0  0  0  0  0  0  0  0  0  0  0
    2.8823   -7.5881    0.0000 C   0  0  0  0  0  0  0  0  0  0  0  0
    1.5294  -10.8233    0.0000 S   0  0  0  0  0  0  0  0  0  0  0  0
    0.5294   -9.9410    0.0000 O   0  0  0  0  0  0  0  0  0  0  0  0
    2.4705  -11.7645    0.0000 O   0  0  0  0  0  0  0  0  0  0  0  0
    0.5882  -11.7645    0.0000 C   0  0  0  0  0  0  0  0  0  0  0  0
  1  3  2  0  0  0  0
  1  5  1  0  0  0  0
  1 15  1  0  0  0  0
  2  3  1  0  0  0  0
  2  4  2  0  0  0  0
  2  6  1  0  0  0  0
  3 13  1  0  0  0  0
  4  5  1  0  0  0  0
  4  7  1  0  0  0  0
  5 16  2  0  0  0  0
  6  9  2  0  0  0  0
  7  8  2  0  0  0  0
  8  9  1  0  0  0  0
  9 14  1  0  0  0  0
 10 11  2  0  0  0  0
 10 12  1  0  0  0  0
 10 13  1  0  0  0  0
 16 21  1  0  0  0  0
 17 22  2  0  0  0  0
 17 18  1  0  0  0  0
 18 19  2  0  0  0  0
 18 23  1  0  0  0  0
 19 20  1  0  0  0  0
 20 21  2  0  0  0  0
 21 22  1  0  0  0  0
 23 24  2  0  0  0  0
 23 25  2  0  0  0  0
 23 26  1  0  0  0  0
M  END
>  <DSSTox_RID>
40831

>  <DSSTox_CID>
20246

>  <DSSTox_Generic_SID>
20247

>  <DSSTox_FileID>
1359_CPDBAS_v5d

>  <STRUCTURE_Formula>
C20H17FO4S

>  <STRUCTURE_MolecularWeight>
372.41

>  <STRUCTURE_ChemicalType>
defined organic

>  <STRUCTURE_TestedForm_DefinedOrganic>
parent

>  <STRUCTURE_Shown>
tested chemical

>  <TestSubstance_ChemicalName>
Sulindac sulfone

>  <TestSubstance_CASRN>
59973-80-7

>  <TestSubstance_Description>
single chemical compound

>  <ChemicalNote>
stereochem

>  <STRUCTURE_ChemicalName_IUPAC>
[(1Z)-5-fluoro-2-methyl-1-{[4-(methylsulfonyl)phenyl]methylidene}-1H-inden-3-yl]acetic acid

>  <STRUCTURE_SMILES>
O=C(CC(C3=C2C=CC(F)=C3)=C(C)/C2=C/C1=CC=C(S(=O)(C)=O)C=C1)O

>  <STRUCTURE_Parent_SMILES>
O=C(CC(C3=C2C=CC(F)=C3)=C(C)/C2=C/C1=CC=C(S(=O)(C)=O)C=C1)O

>  <STRUCTURE_InChI>
InChI=1/C20H17FO4S/c1-12-17(9-13-3-6-15(7-4-13)26(2,24)25)16-8-5-14(21)10-19(16)18(12)11-20(22)23/h3-10H,11H2,1-2H3,(H,22,23)/b17-9-/f/h22H

>  <STRUCTURE_InChIKey>
MVGSNCBCUWPVDA-CFZDBRNIDO

>  <StudyType>
Carcinogenicity

>  <Endpoint>
TD50; Tumor Target Sites

>  <Species>
rat

>  <ActivityScore_CPDBAS_Rat>
0

>  <TD50_Rat_Note>
no positive results

>  <TargetSites_Rat_Male>
no positive results

>  <ActivityOutcome_CPDBAS_Rat>
inactive

>  <ActivityOutcome_CPDBAS_SingleCellCall>
inactive

>  <Note_CPDBAS>
Rat added v5a; chemical added v5a

>  <ChemicalPage_URL>
http://potency.berkeley.edu/chempages/SULINDAC%20SULFONE.html

$$$$



 32 34  0  0  0  0  0  0  0  0999 V2000
    3.3092   -3.3835    0.0000 N   0  0  0  0  0  0  0  0  0  0  0  0
    4.6350   -3.3835    0.0000 N   0  0  0  0  0  0  0  0  0  0  0  0
    3.9774   -5.4305    0.0000 C   0  0  0  0  0  0  0  0  0  0  0  0
    5.0274   -4.6456    0.0000 C   0  0  0  0  0  0  0  0  0  0  0  0
    2.8956   -4.6456    0.0000 C   0  0  0  0  0  0  0  0  0  0  0  0
    4.6350   -6.5654    0.0000 C   0  0  0  0  0  0  0  0  0  0  0  0
    5.4199   -2.3016    0.0000 C   0  0  0  0  0  0  0  0  0  0  0  0
    2.4713   -2.3016    0.0000 C   0  0  0  0  0  0  0  0  0  0  0  0
    6.3108   -5.0593    0.0000 O   0  0  0  0  0  0  0  0  0  0  0  0
    1.6440   -5.0593    0.0000 O   0  0  0  0  0  0  0  0  0  0  0  0
    6.6290   -7.7427    0.0000 C   0  0  0  0  0  0  0  0  0  0  0  0
    9.9382   -6.5654    0.0000 C   0  0  0  0  0  0  0  0  0  0  0  0
    5.9608   -6.5654    0.0000 O   0  0  0  0  0  0  0  0  0  0  0  0
    5.9608   -8.8776    0.0000 O   0  0  0  0  0  0  0  0  0  0  0  0
   10.6064   -5.4305    0.0000 O   0  0  0  0  0  0  0  0  0  0  0  0
    3.3092   -6.5654    0.0000 C   0  0  0  0  0  0  0  0  0  0  0  0
    7.9548   -7.7427    0.0000 C   0  0  0  0  0  0  0  0  0  0  0  0
    8.6124   -6.5654    0.0000 C   0  0  0  0  0  0  0  0  0  0  0  0
   10.6064   -7.7427    0.0000 O   0  0  0  0  0  0  0  0  0  0  0  0
    1.1455   -2.3016    0.0000 C   0  0  0  0  0  0  0  0  0  0  0  0
    4.7411   -1.1667    0.0000 C   0  0  0  0  0  0  0  0  0  0  0  0
    6.7457   -2.3016    0.0000 C   0  0  0  0  0  0  0  0  0  0  0  0
    3.1607   -1.1667    0.0000 C   0  0  0  0  0  0  0  0  0  0  0  0
    1.9834   -6.5654    0.0000 C   0  0  0  0  0  0  0  0  0  0  0  0
    1.3258   -7.7427    0.0000 C   0  0  0  0  0  0  0  0  0  0  0  0
    0.0000   -7.7427    0.0000 C   0  0  0  0  0  0  0  0  0  0  0  0
    0.5091   -1.1667    0.0000 C   0  0  0  0  0  0  0  0  0  0  0  0
    5.4199    0.0000    0.0000 C   0  0  0  0  0  0  0  0  0  0  0  0
    7.3927   -1.1667    0.0000 C   0  0  0  0  0  0  0  0  0  0  0  0
    2.4713    0.0000    0.0000 C   0  0  0  0  0  0  0  0  0  0  0  0
    1.1455    0.0000    0.0000 C   0  0  0  0  0  0  0  0  0  0  0  0
    6.7457    0.0000    0.0000 C   0  0  0  0  0  0  0  0  0  0  0  0
  1  2  1  0  0  0  0
  1  5  1  0  0  0  0
  1  8  1  0  0  0  0
  2  4  1  0  0  0  0
  2  7  1  0  0  0  0
  3  5  1  0  0  0  0
  3  6  1  0  0  0  0
  3 16  1  0  0  0  0
  3  4  1  0  0  0  0
  4  9  2  0  0  0  0
  5 10  2  0  0  0  0
  6 13  1  0  0  0  0
  7 21  1  0  0  0  0
  7 22  2  0  0  0  0
  8 20  1  0  0  0  0
  8 23  2  0  0  0  0
 11 13  1  0  0  0  0
 11 14  2  0  0  0  0
 11 17  1  0  0  0  0
 12 18  1  0  0  0  0
 12 15  2  0  0  0  0
 12 19  1  0  0  0  0
 16 24  1  0  0  0  0
 17 18  1  0  0  0  0
 20 27  2  0  0  0  0
 21 28  2  0  0  0  0
 22 29  1  0  0  0  0
 23 30  1  0  0  0  0
 24 25  1  0  0  0  0
 25 26  1  0  0  0  0
 27 31  1  0  0  0  0
 28 32  1  0  0  0  0
 29 32  2  0  0  0  0
 30 31  2  0  0  0  0
M  END
>  <DSSTox_RID>
21296

>  <DSSTox_CID>
1296

>  <DSSTox_Generic_SID>
21296

>  <DSSTox_FileID>
1360_CPDBAS_v5d

>  <STRUCTURE_Formula>
C24H26N2O6

>  <STRUCTURE_MolecularWeight>
438.473

>  <STRUCTURE_ChemicalType>
defined organic

>  <STRUCTURE_TestedForm_DefinedOrganic>
parent

>  <STRUCTURE_Shown>
tested chemical

>  <TestSubstance_ChemicalName>
Suxibuzone

>  <TestSubstance_CASRN>
27470-51-5

>  <TestSubstance_Description>
single chemical compound

>  <STRUCTURE_ChemicalName_IUPAC>
4-{[(4-butyl-3,5-dioxo-1,2-diphenylpyrazolidin-4-yl)methyl]oxy}-4-oxobutanoic acid

>  <STRUCTURE_SMILES>
OC(=O)CCC(=O)OCC2(CCCC)C(=O)N(c1ccccc1)N(C2=O)c3ccccc3

>  <STRUCTURE_Parent_SMILES>
OC(=O)CCC(=O)OCC2(CCCC)C(=O)N(c1ccccc1)N(C2=O)c3ccccc3

>  <STRUCTURE_InChI>
InChI=1/C24H26N2O6/c1-2-3-16-24(17-32-21(29)15-14-20(27)28)22(30)25(18-10-6-4-7-11-18)26(23(24)31)19-12-8-5-9-13-19/h4-13H,2-3,14-17H2,1H3,(H,27,28)/f/h27H

>  <STRUCTURE_InChIKey>
ONWXNHPOAGOMTG-LELJVTLKCR

>  <StudyType>
Carcinogenicity

>  <Endpoint>
TD50; Tumor Target Sites

>  <Species>
rat

>  <ActivityScore_CPDBAS_Rat>
0

>  <TD50_Rat_Note>
no positive results

>  <TargetSites_Rat_Male>
no positive results

>  <TargetSites_Rat_Female>
no positive results

>  <ActivityOutcome_CPDBAS_Rat>
inactive

>  <ActivityOutcome_CPDBAS_SingleCellCall>
inactive

>  <ActivityOutcome_CPDBAS_MultiCellCall>
inactive

>  <ActivityOutcome_CPDBAS_MultiCellCall_Details>
multisex inactive

>  <Note_CPDBAS>
Rat added v2a; Mouse added v2a

>  <ChemicalPage_URL>
http://potency.berkeley.edu/chempages/SUXIBUZONE.html

$$$$



 28 29  0  0  1  0  0  0  0  0999 V2000
    1.8242    0.0000    0.0000 C   0  0  0  0  0  0  0  0  0  0  0  0
    2.2425   -1.3013    0.0000 C   0  0  0  0  0  0  0  0  0  0  0  0
    1.3362   -2.3122    0.0000 C   0  0  0  0  0  0  0  0  0  0  0  0
    1.7545   -3.6019    0.0000 C   0  0  0  0  0  0  0  0  0  0  0  0
    0.8366   -4.6244    0.0000 O   0  0  0  0  0  0  0  0  0  0  0  0
    3.0907   -3.8924    0.0000 O   0  0  0  0  0  0  0  0  0  0  0  0
    3.5090   -5.1821    0.0000 C   0  0  1  0  0  0  0  0  0  0  0  0
    4.7987   -5.6120    0.0000 C   0  0  2  0  0  0  0  0  0  0  0  0
    4.7987   -6.9715    0.0000 N   0  0  0  0  0  0  0  0  0  0  0  0
    6.1000   -7.3898    0.0000 C   0  0  0  0  0  0  0  0  0  0  0  0
    6.9017   -6.2859    0.0000 C   0  0  0  0  0  0  0  0  0  0  0  0
    6.1000   -5.1821    0.0000 C   0  0  0  0  0  0  0  0  0  0  0  0
    6.5183   -3.8924    0.0000 C   0  0  0  0  0  0  0  0  0  0  0  0
    7.8545   -3.6019    0.0000 O   0  0  0  0  0  0  0  0  0  0  0  0
    8.2728   -2.3122    0.0000 C   0  0  0  0  0  0  0  0  0  0  0  0
    7.3665   -1.3013    0.0000 O   0  0  0  0  0  0  0  0  0  0  0  0
    9.6090   -2.0333    0.0000 C   0  0  3  0  0  0  0  0  0  0  0  0
    9.8879   -3.3579    0.0000 C   0  0  3  0  0  0  0  0  0  0  0  0
    8.8770   -4.2758    0.0000 O   0  0  0  0  0  0  0  0  0  0  0  0
   10.9336   -1.7429    0.0000 C   0  0  0  0  0  0  0  0  0  0  0  0
    9.3185   -0.6971    0.0000 O   0  0  0  0  0  0  0  0  0  0  0  0
    3.5090   -7.3898    0.0000 C   0  0  0  0  0  0  0  0  0  0  0  0
    2.7073   -6.2859    0.0000 C   0  0  0  0  0  0  0  0  0  0  0  0
    0.0000   -2.0333    0.0000 C   0  0  0  0  0  0  0  0  0  0  0  0
    4.8103   -4.3572    0.0000 H   0  0  0  0  0  0  0  0  0  0  0  0
   10.8987   -3.9389    0.0000 C   0  0  0  0  0  0  0  0  0  0  0  0
   11.6191   -0.6623    0.0000 C   0  0  0  0  0  0  0  0  0  0  0  0
   11.4216   -2.3935    0.0000 C   0  0  0  0  0  0  0  0  0  0  0  0
  1  2  1  0  0  0  0
  2  3  2  0  0  0  0
  3  4  1  0  0  0  0
  3 24  1  0  0  0  0
  4  5  2  0  0  0  0
  4  6  1  0  0  0  0
  7  6  1  1  0  0  0
  7  8  1  0  0  0  0
  7 23  1  0  0  0  0
  8  9  1  0  0  0  0
  8 12  1  0  0  0  0
  8 25  1  6  0  0  0
  9 10  1  0  0  0  0
  9 22  1  0  0  0  0
 10 11  1  0  0  0  0
 11 12  2  0  0  0  0
 12 13  1  0  0  0  0
 13 14  1  0  0  0  0
 14 15  1  0  0  0  0
 15 16  2  0  0  0  0
 15 17  1  0  0  0  0
 17 18  1  0  0  0  0
 17 20  1  0  0  0  0
 17 21  1  0  0  0  0
 18 19  1  0  0  0  0
 18 26  1  0  0  0  0
 20 27  1  0  0  0  0
 20 28  1  0  0  0  0
 22 23  1  0  0  0  0
M  END
>  <DSSTox_RID>
21297

>  <DSSTox_CID>
1297

>  <DSSTox_Generic_SID>
21297

>  <DSSTox_FileID>
1361_CPDBAS_v5d

>  <STRUCTURE_Formula>
C20H31NO6

>  <STRUCTURE_MolecularWeight>
381.468

>  <STRUCTURE_ChemicalType>
defined organic

>  <STRUCTURE_TestedForm_DefinedOrganic>
parent

>  <STRUCTURE_Shown>
tested chemical

>  <TestSubstance_ChemicalName>
Symphytine

>  <TestSubstance_CASRN>
22571-95-5

>  <TestSubstance_Description>
single chemical compound

>  <ChemicalNote>
stereochem

>  <STRUCTURE_ChemicalName_IUPAC>
(1R,7aR)-7-({[2,3-dihydroxy-2-(1-methylethyl)butanoyl]oxy}methyl)-2,3,5,7a-tetrahydro-1H-pyrrolizin-1-yl (2E)-2-methylbut-2-enoate

>  <STRUCTURE_SMILES>
CC(C)C(O)(C(C)O)C(=O)OC\C1=C\CN2CC[C@@H](OC(=O)C(\C)=C\C)[C@@H]12

>  <STRUCTURE_Parent_SMILES>
CC(C)C(O)(C(C)O)C(=O)OC\C1=C\CN2CC[C@@H](OC(=O)C(\C)=C\C)[C@@H]12

>  <STRUCTURE_InChI>
InChI=1/C20H31NO6/c1-6-13(4)18(23)27-16-8-10-21-9-7-15(17(16)21)11-26-19(24)20(25,12(2)3)14(5)22/h6-7,12,14,16-17,22,25H,8-11H2,1-5H3/b13-6+/t14?,16-,17-,20?/m1/s1

>  <STRUCTURE_InChIKey>
MVWPTZQHBOWRTF-OEQXRFFVBK

>  <StudyType>
Carcinogenicity

>  <Endpoint>
TD50; Tumor Target Sites

>  <Species>
rat

>  <TD50_Rat_mg>
1.91

>  <TD50_Rat_mmol>
0.00501

>  <ActivityScore_CPDBAS_Rat>
49

>  <TD50_Rat_Note>
positive test results only by intraperitoneal or intravenous injection

>  <TargetSites_Rat_Male>
liver; vascular system

>  <ActivityOutcome_CPDBAS_Rat>
active

>  <ActivityOutcome_CPDBAS_SingleCellCall>
active

>  <ActivityOutcome_CPDBAS_MultiCellCall>
active

>  <ActivityOutcome_CPDBAS_MultiCellCall_Details>
multisite active

>  <ChemicalPage_URL>
http://potency.berkeley.edu/chempages/SYMPHYTINE.html

$$$$



 35 38  0  0  1  0  0  0  0  0999 V2000
    7.5889   -1.2410    0.0000 C   0  0  1  0  0  0  0  0  0  0  0  0
    7.5889   -2.5106    0.0000 C   0  0  2  0  0  0  0  0  0  0  0  0
    6.5048   -0.6134    0.0000 C   0  0  0  0  0  0  0  0  0  0  0  0
    6.5048   -3.1097    0.0000 C   0  0  0  0  0  0  0  0  0  0  0  0
    5.4349   -1.2410    0.0000 C   0  0  0  0  0  0  0  0  0  0  0  0
    5.4349   -2.5106    0.0000 C   0  0  1  0  0  0  0  0  0  0  0  0
    8.6873   -0.6134    0.0000 O   0  0  0  0  0  0  0  0  0  0  0  0
    9.7714   -1.2410    0.0000 C   0  0  1  0  0  0  0  0  0  0  0  0
    8.6873   -3.1097    0.0000 C   0  0  1  0  0  0  0  0  0  0  0  0
    9.7714   -2.5106    0.0000 C   0  0  1  0  0  0  0  0  0  0  0  0
   11.0125   -1.2410    0.0000 C   0  0  2  0  0  0  0  0  0  0  0  0
    7.5889    0.0000    0.0000 H   0  0  0  0  0  0  0  0  0  0  0  0
    9.7714    0.0000    0.0000 H   0  0  0  0  0  0  0  0  0  0  0  0
    4.3223   -0.6134    0.0000 C   0  0  0  0  0  0  0  0  0  0  0  0
    8.6873   -4.3793    0.0000 C   0  0  0  0  0  0  0  0  0  0  0  0
    4.3223   -3.1097    0.0000 O   0  0  0  0  0  0  0  0  0  0  0  0
    3.2667   -2.4964    0.0000 C   0  0  0  0  0  0  0  0  0  0  0  0
    2.1540   -3.0955    0.0000 C   0  0  0  0  0  0  0  0  0  0  0  0
    1.0984   -2.4536    0.0000 C   0  0  0  0  0  0  0  0  0  0  0  0
    0.0000   -3.0812    0.0000 C   0  0  0  0  0  0  0  0  0  0  0  0
    3.2667   -1.2268    0.0000 O   0  0  0  0  0  0  0  0  0  0  0  0
    1.0984   -1.2125    0.0000 C   0  0  0  0  0  0  0  0  0  0  0  0
    5.4634   -4.4506    0.0000 C   0  0  0  0  0  0  0  0  0  0  0  0
    5.4634   -3.1811    0.0000 O   0  0  0  0  0  0  0  0  0  0  0  0
    6.5191   -5.0783    0.0000 O   0  0  0  0  0  0  0  0  0  0  0  0
    4.3508   -5.0783    0.0000 C   0  0  0  0  0  0  0  0  0  0  0  0
    7.6317   -4.4506    0.0000 C   0  0  0  0  0  0  0  0  0  0  0  0
   13.1950   -3.1097    0.0000 C   0  0  0  0  0  0  0  0  0  0  0  0
   13.1950   -1.8544    0.0000 O   0  0  0  0  0  0  0  0  0  0  0  0
   12.1109   -3.7374    0.0000 O   0  0  0  0  0  0  0  0  0  0  0  0
   14.2649   -3.7374    0.0000 C   0  0  0  0  0  0  0  0  0  0  0  0
   12.1109   -0.6134    0.0000 O   0  0  0  0  0  0  0  0  0  0  0  0
   11.0125   -3.1097    0.0000 C   0  0  1  0  0  0  0  0  0  0  0  0
   10.6416   -1.6262    0.0000 O   0  0  0  0  0  0  0  0  0  0  0  0
    8.8728   -1.6262    0.0000 C   0  0  0  0  0  0  0  0  0  0  0  0
  1  3  1  0  0  0  0
  1  7  1  0  0  0  0
  1  2  1  0  0  0  0
  1 12  1  6  0  0  0
  2  4  1  0  0  0  0
  2  9  1  0  0  0  0
  2 27  1  6  0  0  0
  3  5  2  0  0  0  0
  4  6  1  0  0  0  0
  5  6  1  0  0  0  0
  5 14  1  0  0  0  0
  6 16  1  6  0  0  0
  7  8  1  0  0  0  0
  8 11  1  0  0  0  0
  8 10  1  0  0  0  0
  8 13  1  1  0  0  0
  9 10  1  0  0  0  0
  9 15  1  1  0  0  0
  9 33  1  0  0  0  0
 10 34  1  6  0  0  0
 10 35  1  1  0  0  0
 11 33  1  0  0  0  0
 11 32  1  6  0  0  0
 16 17  1  0  0  0  0
 17 18  1  0  0  0  0
 17 21  2  0  0  0  0
 18 19  1  0  0  0  0
 19 20  1  0  0  0  0
 19 22  1  0  0  0  0
 23 24  2  0  0  0  0
 23 25  1  0  0  0  0
 23 26  1  0  0  0  0
 25 27  1  0  0  0  0
 28 29  2  0  0  0  0
 28 30  1  0  0  0  0
 28 31  1  0  0  0  0
 33 30  1  1  0  0  0
 34 35  1  0  0  0  0
M  END
>  <DSSTox_RID>
21298

>  <DSSTox_CID>
1298

>  <DSSTox_Generic_SID>
21298

>  <DSSTox_FileID>
1362_CPDBAS_v5d

>  <STRUCTURE_Formula>
C24H34O9

>  <STRUCTURE_MolecularWeight>
466.5214

>  <STRUCTURE_ChemicalType>
defined organic

>  <STRUCTURE_TestedForm_DefinedOrganic>
parent

>  <STRUCTURE_Shown>
tested chemical

>  <TestSubstance_ChemicalName>
T-2 toxin

>  <TestSubstance_CASRN>
21259-20-1

>  <TestSubstance_Description>
single chemical compound

>  <ChemicalNote>
stereochem

>  <STRUCTURE_ChemicalName_IUPAC>
(3alpha,4beta,8alpha)-4,15-bis(acetyloxy)-3-hydroxy-12,13-epoxytrichothec-9-en-8-yl 3-methylbutanoate

>  <STRUCTURE_SMILES>
CC(C)CC(=O)O[C@H]1C[C@]2(COC(C)=O)[C@@]4(C)[C@H](OC(C)=O)[C@@H](O)[C@@H](O[C@@H]2/C=C1/C)[C@]34CO3

>  <STRUCTURE_Parent_SMILES>
CC(C)CC(=O)O[C@H]1C[C@]2(COC(C)=O)[C@@]4(C)[C@H](OC(C)=O)[C@@H](O)[C@@H](O[C@@H]2/C=C1/C)[C@]34CO3

>  <STRUCTURE_InChI>
InChI=1/C24H34O9/c1-12(2)7-18(27)32-16-9-23(10-29-14(4)25)17(8-13(16)3)33-21-19(28)20(31-15(5)26)22(23,6)24(21)11-30-24/h8,12,16-17,19-21,28H,7,9-11H2,1-6H3/t16-,17+,19+,20+,21+,22+,23+,24-/m0/s1

>  <STRUCTURE_InChIKey>
BXFOFFBJRFZBQZ-QYWOHJEZBH

>  <StudyType>
Carcinogenicity

>  <Endpoint>
TD50; Tumor Target Sites

>  <Species>
mouse

>  <ActivityOutcome_CPDBAS_Mutagenicity>
inactive

>  <TD50_Mouse_mg>
0.883

>  <TD50_Mouse_mmol>
0.00189

>  <ActivityScore_CPDBAS_Mouse>
59

>  <TargetSites_Mouse_Male>
liver; lung

>  <TargetSites_Mouse_Female>
no positive results

>  <ActivityOutcome_CPDBAS_Mouse>
active

>  <ActivityOutcome_CPDBAS_SingleCellCall>
active

>  <ActivityOutcome_CPDBAS_MultiCellCall>
active

>  <ActivityOutcome_CPDBAS_MultiCellCall_Details>
multisite active

>  <Note_CPDBAS>
Mouse added v2a

>  <ChemicalPage_URL>
http://potency.berkeley.edu/chempages/T-2%20TOXIN.html

$$$$



 27 29  0  0  0  0  0  0  0  0999 V2000
    6.6515   -8.0678    0.0000 Cl  0  0  0  0  0  0  0  0  0  0  0  0
    5.9939   -6.9170    0.0000 C   0  0  0  0  0  0  0  0  0  0  0  0
    6.6515   -5.7663    0.0000 C   0  0  0  0  0  0  0  0  0  0  0  0
    5.9939   -4.6156    0.0000 C   0  0  0  0  0  0  0  0  0  0  0  0
    4.6535   -4.6156    0.0000 C   0  0  0  0  0  0  0  0  0  0  0  0
    3.9960   -3.4522    0.0000 C   0  0  0  0  0  0  0  0  0  0  0  0
    4.6535   -2.3015    0.0000 C   0  0  0  0  0  0  0  0  0  0  0  0
    5.9939   -2.3015    0.0000 C   0  0  0  0  0  0  0  0  0  0  0  0
    6.6515   -3.4522    0.0000 C   0  0  0  0  0  0  0  0  0  0  0  0
    3.9960   -1.1507    0.0000 O   0  0  0  0  0  0  0  0  0  0  0  0
    4.6535    0.0000    0.0000 C   0  0  0  0  0  0  0  0  0  0  0  0
    7.9919   -5.7663    0.0000 C   0  0  0  0  0  0  0  0  0  0  0  0
    8.6495   -4.6156    0.0000 C   0  0  0  0  0  0  0  0  0  0  0  0
    9.9772   -4.6156    0.0000 C   0  0  0  0  0  0  0  0  0  0  0  0
   10.6474   -5.7663    0.0000 C   0  0  0  0  0  0  0  0  0  0  0  0
    9.9772   -6.9170    0.0000 C   0  0  0  0  0  0  0  0  0  0  0  0
    8.6495   -6.9170    0.0000 C   0  0  0  0  0  0  0  0  0  0  0  0
   11.9752   -5.7663    0.0000 O   0  0  0  0  0  0  0  0  0  0  0  0
   12.6454   -6.9170    0.0000 C   0  0  0  0  0  0  0  0  0  0  0  0
    4.6535   -6.9170    0.0000 C   0  0  0  0  0  0  0  0  0  0  0  0
    3.9960   -8.0678    0.0000 C   0  0  0  0  0  0  0  0  0  0  0  0
    2.6682   -8.0678    0.0000 C   0  0  0  0  0  0  0  0  0  0  0  0
    1.9980   -6.9170    0.0000 C   0  0  0  0  0  0  0  0  0  0  0  0
    2.6682   -5.7663    0.0000 C   0  0  0  0  0  0  0  0  0  0  0  0
    3.9960   -5.7663    0.0000 C   0  0  0  0  0  0  0  0  0  0  0  0
    0.6702   -6.9170    0.0000 O   0  0  0  0  0  0  0  0  0  0  0  0
    0.0000   -8.0678    0.0000 C   0  0  0  0  0  0  0  0  0  0  0  0
  1  2  1  0  0  0  0
  2  3  2  0  0  0  0
  2 20  1  0  0  0  0
  3  4  1  0  0  0  0
  3 12  1  0  0  0  0
  4  5  2  0  0  0  0
  4  9  1  0  0  0  0
  5  6  1  0  0  0  0
  6  7  2  0  0  0  0
  7  8  1  0  0  0  0
  7 10  1  0  0  0  0
  8  9  2  0  0  0  0
 10 11  1  0  0  0  0
 12 13  2  0  0  0  0
 12 17  1  0  0  0  0
 13 14  1  0  0  0  0
 14 15  2  0  0  0  0
 15 16  1  0  0  0  0
 15 18  1  0  0  0  0
 16 17  2  0  0  0  0
 18 19  1  0  0  0  0
 20 21  2  0  0  0  0
 20 25  1  0  0  0  0
 21 22  1  0  0  0  0
 22 23  2  0  0  0  0
 23 24  1  0  0  0  0
 23 26  1  0  0  0  0
 24 25  2  0  0  0  0
 26 27  1  0  0  0  0
M  END
>  <DSSTox_RID>
21299

>  <DSSTox_CID>
1299

>  <DSSTox_Generic_SID>
21299

>  <DSSTox_FileID>
1363_CPDBAS_v5d

>  <STRUCTURE_Formula>
C23H21ClO3

>  <STRUCTURE_MolecularWeight>
380.864

>  <STRUCTURE_ChemicalType>
defined organic

>  <STRUCTURE_TestedForm_DefinedOrganic>
parent

>  <STRUCTURE_Shown>
tested chemical

>  <TestSubstance_ChemicalName>
Tace

>  <TestSubstance_CASRN>
569-57-3

>  <TestSubstance_Description>
single chemical compound

>  <STRUCTURE_ChemicalName_IUPAC>
1,1',1''-(2-chloroethene-1,1,2-triyl)tris[4-(methyloxy)benzene]

>  <STRUCTURE_SMILES>
ClC(=C(C1=CC=C(C=C1)OC)C2=CC=C(C=C2)OC)C3=CC=C(C=C3)OC

>  <STRUCTURE_Parent_SMILES>
ClC(=C(C1=CC=C(C=C1)OC)C2=CC=C(C=C2)OC)C3=CC=C(C=C3)OC

>  <STRUCTURE_InChI>
InChI=1/C23H21ClO3/c1-25-19-10-4-16(5-11-19)22(17-6-12-20(26-2)13-7-17)23(24)18-8-14-21(27-3)15-9-18/h4-15H,1-3H3

>  <STRUCTURE_InChIKey>
BFPSDSIWYFKGBC-UHFFFAOYAB

>  <StudyType>
Carcinogenicity

>  <Endpoint>
TD50; Tumor Target Sites

>  <Species>
rat

>  <ActivityOutcome_CPDBAS_Mutagenicity>
inactive

>  <ActivityScore_CPDBAS_Rat>
0

>  <TD50_Rat_Note>
no positive results

>  <TargetSites_Rat_Male>
no positive results

>  <TargetSites_Rat_Female>
no positive results

>  <ActivityOutcome_CPDBAS_Rat>
inactive

>  <ActivityOutcome_CPDBAS_SingleCellCall>
inactive

>  <ActivityOutcome_CPDBAS_MultiCellCall>
inactive

>  <ActivityOutcome_CPDBAS_MultiCellCall_Details>
multisex inactive

>  <ChemicalPage_URL>
http://potency.berkeley.edu/chempages/TACE.html

$$$$



  7  6  0  0  0  0  0  0  0  0999 V2000
    3.4571   -1.1709    0.0000 S   0  0  0  0  0  0  0  0  0  0  0  0
    2.3140   -1.8466    0.0000 C   0  0  0  0  0  0  0  0  0  0  0  0
    2.8138    0.0000    0.0000 O   0  0  0  0  0  0  0  0  0  0  0  0
    4.0819   -2.3140    0.0000 O   0  0  0  0  0  0  0  0  0  0  0  0
    4.6280   -0.5322    0.0000 O   0  0  0  0  0  0  0  0  0  0  0  0
    0.0000   -1.8466    0.0000 N   0  0  0  0  0  0  0  0  0  0  0  0
    1.1570   -1.1709    0.0000 C   0  0  0  0  0  0  0  0  0  0  0  0
  1  2  1  0  0  0  0
  1  3  2  0  0  0  0
  1  4  2  0  0  0  0
  1  5  1  0  0  0  0
  2  7  1  0  0  0  0
  6  7  1  0  0  0  0
M  END
>  <DSSTox_RID>
21304

>  <DSSTox_CID>
1304

>  <DSSTox_Generic_SID>
21304

>  <DSSTox_FileID>
1368_CPDBAS_v5d

>  <STRUCTURE_Formula>
C2H7NO3S

>  <STRUCTURE_MolecularWeight>
125.1469

>  <STRUCTURE_ChemicalType>
defined organic

>  <STRUCTURE_TestedForm_DefinedOrganic>
parent

>  <STRUCTURE_Shown>
tested chemical

>  <TestSubstance_ChemicalName>
Taurine

>  <TestSubstance_CASRN>
107-35-7

>  <TestSubstance_Description>
single chemical compound

>  <STRUCTURE_ChemicalName_IUPAC>
2-aminoethanesulfonic acid

>  <STRUCTURE_SMILES>
NCCS(O)(=O)=O

>  <STRUCTURE_Parent_SMILES>
NCCS(O)(=O)=O

>  <STRUCTURE_InChI>
InChI=1/C2H7NO3S/c3-1-2-7(4,5)6/h1-3H2,(H,4,5,6)/f/h4H

>  <STRUCTURE_InChIKey>
XOAAWQZATWQOTB-JLSKMEETCR

>  <StudyType>
Carcinogenicity

>  <Endpoint>
TD50; Tumor Target Sites

>  <Species>
rat

>  <ActivityOutcome_CPDBAS_Mutagenicity>
inactive

>  <ActivityScore_CPDBAS_Rat>
0

>  <TD50_Rat_Note>
no positive results

>  <TargetSites_Rat_Male>
no positive results

>  <TargetSites_Rat_Female>
no positive results

>  <ActivityOutcome_CPDBAS_Rat>
inactive

>  <ActivityOutcome_CPDBAS_SingleCellCall>
inactive

>  <ActivityOutcome_CPDBAS_MultiCellCall>
inactive

>  <ActivityOutcome_CPDBAS_MultiCellCall_Details>
multisex inactive

>  <Note_CPDBAS>
Rat added v2a

>  <ChemicalPage_URL>
http://potency.berkeley.edu/chempages/TAURINE.html

$$$$



 14 15  0  0  0  0  0  0  0  0999 V2000
    3.3832   -2.2997    0.0000 N   0  0  0  0  0  0  0  0  0  0  0  0
    4.0391   -1.1572    0.0000 C   0  0  0  0  0  0  0  0  0  0  0  0
    5.3659   -1.1572    0.0000 N   0  0  0  0  0  0  0  0  0  0  0  0
    4.0391   -3.4569    0.0000 C   0  0  0  0  0  0  0  0  0  0  0  0
    5.3659   -3.4569    0.0000 C   0  0  0  0  0  0  0  0  0  0  0  0
    6.0440   -2.2997    0.0000 C   0  0  0  0  0  0  0  0  0  0  0  0
    2.0564   -2.2997    0.0000 C   0  0  3  0  0  0  0  0  0  0  0  0
    3.3832    0.0000    0.0000 O   0  0  0  0  0  0  0  0  0  0  0  0
    7.3707   -2.2997    0.0000 O   0  0  0  0  0  0  0  0  0  0  0  0
    1.2751   -3.3832    0.0000 O   0  0  0  0  0  0  0  0  0  0  0  0
    6.0440   -4.5993    0.0000 F   0  0  0  0  0  0  0  0  0  0  0  0
    1.2751   -1.2309    0.0000 C   0  0  0  0  0  0  0  0  0  0  0  0
    0.0000   -2.9704    0.0000 C   0  0  0  0  0  0  0  0  0  0  0  0
    0.0000   -1.6437    0.0000 C   0  0  0  0  0  0  0  0  0  0  0  0
  1  2  1  0  0  0  0
  1  4  1  0  0  0  0
  1  7  1  0  0  0  0
  2  3  1  0  0  0  0
  2  8  2  0  0  0  0
  3  6  1  0  0  0  0
  4  5  2  0  0  0  0
  5  6  1  0  0  0  0
  5 11  1  0  0  0  0
  6  9  2  0  0  0  0
  7 10  1  0  0  0  0
  7 12  1  0  0  0  0
 10 13  1  0  0  0  0
 12 14  1  0  0  0  0
 13 14  1  0  0  0  0
M  END
>  <DSSTox_RID>
21305

>  <DSSTox_CID>
1305

>  <DSSTox_Generic_SID>
21305

>  <DSSTox_FileID>
1369_CPDBAS_v5d

>  <STRUCTURE_Formula>
C8H9FN2O3

>  <STRUCTURE_MolecularWeight>
200.1671

>  <STRUCTURE_ChemicalType>
defined organic

>  <STRUCTURE_TestedForm_DefinedOrganic>
parent

>  <STRUCTURE_Shown>
tested chemical

>  <TestSubstance_ChemicalName>
Tegafur

>  <TestSubstance_CASRN>
37076-68-9

>  <TestSubstance_Description>
single chemical compound

>  <STRUCTURE_ChemicalName_IUPAC>
5-fluoro-1-(tetrahydrofuran-2-yl)pyrimidine-2,4(1H,3H)-dione

>  <STRUCTURE_SMILES>
O=C(N1)N(C2OCCC2)C=C(F)C1=O

>  <STRUCTURE_Parent_SMILES>
O=C(N1)N(C2OCCC2)C=C(F)C1=O

>  <STRUCTURE_InChI>
InChI=1/C8H9FN2O3/c9-5-4-11(6-2-1-3-14-6)8(13)10-7(5)12/h4,6H,1-3H2,(H,10,12,13)/f/h10H

>  <STRUCTURE_InChIKey>
WFWLQNSHRPWKFK-KZFATGLACE

>  <StudyType>
Carcinogenicity

>  <Endpoint>
TD50; Tumor Target Sites

>  <Species>
rat; mouse

>  <ActivityScore_CPDBAS_Rat>
0

>  <TD50_Rat_Note>
no positive results

>  <TargetSites_Rat_Male>
no positive results

>  <TargetSites_Rat_Female>
no positive results

>  <ActivityOutcome_CPDBAS_Rat>
inactive

>  <ActivityScore_CPDBAS_Mouse>
0

>  <TD50_Mouse_Note>
no positive results

>  <TargetSites_Mouse_Male>
no positive results

>  <TargetSites_Mouse_Female>
no positive results

>  <ActivityOutcome_CPDBAS_Mouse>
inactive

>  <ActivityOutcome_CPDBAS_SingleCellCall>
inactive

>  <ActivityOutcome_CPDBAS_MultiCellCall>
inactive

>  <ActivityOutcome_CPDBAS_MultiCellCall_Details>
multisex inactive; multispecies inactive

>  <Note_CPDBAS>
Rat added v3a; Mouse added v3a; chemical added v3a

>  <ChemicalPage_URL>
http://potency.berkeley.edu/chempages/TEGAFUR.html

$$$$



 18 20  0  0  0  0  0  0  0  0999 V2000
    0.6487   -2.5433    0.0000 C   0  0  0  0  0  0  0  0  0  0  0  0
    2.5433   -1.9332    0.0000 C   0  0  3  0  0  0  0  0  0  0  0  0
    1.0661   -3.9691    0.0000 C   0  0  0  0  0  0  0  0  0  0  0  0
    2.6332   -3.1791    0.0000 C   0  0  3  0  0  0  0  0  0  0  0  0
    4.1168   -3.6801    0.0000 C   0  0  3  0  0  0  0  0  0  0  0  0
    4.3416   -2.4341    0.0000 C   0  0  3  0  0  0  0  0  0  0  0  0
    5.3563   -1.9845    0.0000 C   0  0  3  0  0  0  0  0  0  0  0  0
    6.4225   -3.0507    0.0000 O   0  0  0  0  0  0  0  0  0  0  0  0
    5.1894   -4.2388    0.0000 C   0  0  3  0  0  0  0  0  0  0  0  0
    3.2626   -0.5780    0.0000 C   0  0  0  0  0  0  0  0  0  0  0  0
    0.8991   -4.7976    0.0000 Cl  0  0  0  0  0  0  0  0  0  0  0  0
    0.0000   -2.2029    0.0000 Cl  0  0  0  0  0  0  0  0  0  0  0  0
    4.0012   -0.1863    0.0000 Cl  0  0  0  0  0  0  0  0  0  0  0  0
    2.5433    0.0000    0.0000 Cl  0  0  0  0  0  0  0  0  0  0  0  0
    2.8130   -4.0076    0.0000 Cl  0  0  0  0  0  0  0  0  0  0  0  0
    1.8561   -1.3038    0.0000 Cl  0  0  0  0  0  0  0  0  0  0  0  0
    6.1463   -1.2460    0.0000 Cl  0  0  0  0  0  0  0  0  0  0  0  0
    5.4655   -4.9068    0.0000 Cl  0  0  0  0  0  0  0  0  0  0  0  0
  1  2  1  0  0  0  0
  1  3  2  0  0  0  0
  1 12  1  0  0  0  0
  2  6  1  0  0  0  0
  2 10  1  0  0  0  0
  2 16  1  0  0  0  0
  3  4  1  0  0  0  0
  3 11  1  0  0  0  0
  4  5  1  0  0  0  0
  4 10  1  0  0  0  0
  4 15  1  0  0  0  0
  5  6  1  0  0  0  0
  5  9  1  0  0  0  0
  6  7  1  0  0  0  0
  7  8  1  0  0  0  0
  7 17  1  0  0  0  0
  8  9  1  0  0  0  0
  9 18  1  0  0  0  0
 10 13  1  0  0  0  0
 10 14  1  0  0  0  0
M  END
>  <DSSTox_RID>
21306

>  <DSSTox_CID>
1306

>  <DSSTox_Generic_SID>
21306

>  <DSSTox_FileID>
1370_CPDBAS_v5d

>  <STRUCTURE_Formula>
C9H4Cl8O

>  <STRUCTURE_MolecularWeight>
411.754

>  <STRUCTURE_ChemicalType>
defined organic

>  <STRUCTURE_TestedForm_DefinedOrganic>
parent

>  <STRUCTURE_Shown>
tested chemical

>  <TestSubstance_ChemicalName>
Telodrin

>  <TestSubstance_CASRN>
297-78-9

>  <TestSubstance_Description>
single chemical compound

>  <ChemicalNote>
stereochem

>  <STRUCTURE_ChemicalName_IUPAC>
1,3,4,5,6,7,8,8-octachloro-1,3,3a,4,7,7a-hexahydro-4,7-methano-2-benzofuran

>  <STRUCTURE_SMILES>
Cl/C2=C(\Cl)C3(Cl)C1C(Cl)OC(Cl)C1C2(Cl)C3(Cl)Cl

>  <STRUCTURE_Parent_SMILES>
Cl/C2=C(\Cl)C3(Cl)C1C(Cl)OC(Cl)C1C2(Cl)C3(Cl)Cl

>  <STRUCTURE_InChI>
InChI=1/C9H4Cl8O/c10-3-4(11)8(15)2-1(5(12)18-6(2)13)7(3,14)9(8,16)17/h1-2,5-6H

>  <STRUCTURE_InChIKey>
LRWHHSXTGZSMSN-UHFFFAOYAB

>  <StudyType>
Carcinogenicity

>  <Endpoint>
TD50; Tumor Target Sites

>  <Species>
mouse

>  <ActivityScore_CPDBAS_Mouse>
0

>  <TD50_Mouse_Note>
no positive results

>  <TargetSites_Mouse_Male>
no positive results

>  <TargetSites_Mouse_Female>
no positive results

>  <ActivityOutcome_CPDBAS_Mouse>
inactive

>  <ActivityOutcome_CPDBAS_SingleCellCall>
inactive

>  <ActivityOutcome_CPDBAS_MultiCellCall>
inactive

>  <ActivityOutcome_CPDBAS_MultiCellCall_Details>
multisex inactive

>  <ChemicalPage_URL>
http://potency.berkeley.edu/chempages/TELODRIN.html

$$$$



 21 23  0  0  0  0  0  0  0  0999 V2000
    4.2049   -8.1966    0.0000 C   0  0  0  0  0  0  0  0  0  0  0  0
    4.4999   -6.9015    0.0000 N   0  0  0  0  0  0  0  0  0  0  0  0
    3.4590   -6.0737    0.0000 C   0  0  0  0  0  0  0  0  0  0  0  0
    2.3032   -6.7376    0.0000 C   0  0  0  0  0  0  0  0  0  0  0  0
    1.1557   -6.0737    0.0000 C   0  0  0  0  0  0  0  0  0  0  0  0
    1.1557   -4.7376    0.0000 C   0  0  0  0  0  0  0  0  0  0  0  0
    2.3032   -4.0737    0.0000 C   0  0  0  0  0  0  0  0  0  0  0  0
    3.4590   -4.7376    0.0000 C   0  0  0  0  0  0  0  0  0  0  0  0
    4.4999   -3.9098    0.0000 C   0  0  0  0  0  0  0  0  0  0  0  0
    5.7950   -4.2049    0.0000 N   0  0  0  0  0  0  0  0  0  0  0  0
    6.3688   -5.4016    0.0000 C   0  0  3  0  0  0  0  0  0  0  0  0
    5.7950   -6.6065    0.0000 C   0  0  0  0  0  0  0  0  0  0  0  0
    6.6229   -7.6474    0.0000 O   0  0  0  0  0  0  0  0  0  0  0  0
    7.7048   -5.4016    0.0000 O   0  0  0  0  0  0  0  0  0  0  0  0
    4.2213   -2.6311    0.0000 C   0  0  0  0  0  0  0  0  0  0  0  0
    2.9262   -2.2213    0.0000 C   0  0  0  0  0  0  0  0  0  0  0  0
    2.6475   -0.9426    0.0000 C   0  0  0  0  0  0  0  0  0  0  0  0
    3.5901    0.0000    0.0000 C   0  0  0  0  0  0  0  0  0  0  0  0
    4.8770   -0.4098    0.0000 C   0  0  0  0  0  0  0  0  0  0  0  0
    5.1557   -1.6885    0.0000 C   0  0  0  0  0  0  0  0  0  0  0  0
    0.0000   -4.0737    0.0000 Cl  0  0  0  0  0  0  0  0  0  0  0  0
  1  2  1  0  0  0  0
  2  3  1  0  0  0  0
  2 12  1  0  0  0  0
  3  4  2  0  0  0  0
  3  8  1  0  0  0  0
  4  5  1  0  0  0  0
  5  6  2  0  0  0  0
  6  7  1  0  0  0  0
  6 21  1  0  0  0  0
  7  8  2  0  0  0  0
  8  9  1  0  0  0  0
  9 10  2  0  0  0  0
  9 15  1  0  0  0  0
 10 11  1  0  0  0  0
 11 12  1  0  0  0  0
 11 14  1  0  0  0  0
 12 13  2  0  0  0  0
 15 16  2  0  0  0  0
 15 20  1  0  0  0  0
 16 17  1  0  0  0  0
 17 18  2  0  0  0  0
 18 19  1  0  0  0  0
 19 20  2  0  0  0  0
M  END
>  <DSSTox_RID>
21309

>  <DSSTox_CID>
1309

>  <DSSTox_Generic_SID>
21309

>  <DSSTox_FileID>
1373_CPDBAS_v5d

>  <STRUCTURE_Formula>
C16H13ClN2O2

>  <STRUCTURE_MolecularWeight>
300.7439

>  <STRUCTURE_ChemicalType>
defined organic

>  <STRUCTURE_TestedForm_DefinedOrganic>
parent

>  <STRUCTURE_Shown>
tested chemical

>  <TestSubstance_ChemicalName>
Temazepam, pharmaceutical grade

>  <TestSubstance_CASRN>
846-50-4

>  <TestSubstance_Description>
single chemical compound

>  <STRUCTURE_ChemicalName_IUPAC>
7-chloro-3-hydroxy-1-methyl-5-phenyl-1,3-dihydro-2H-1,4-benzodiazepin-2-one

>  <STRUCTURE_SMILES>
CN1C2=CC=C(C=C2C(=NC(C1=O)O)C3=CC=CC=C3)Cl

>  <STRUCTURE_Parent_SMILES>
CN1C2=CC=C(C=C2C(=NC(C1=O)O)C3=CC=CC=C3)Cl

>  <STRUCTURE_InChI>
InChI=1/C16H13ClN2O2/c1-19-13-8-7-11(17)9-12(13)14(18-15(20)16(19)21)10-5-3-2-4-6-10/h2-9,15,20H,1H3

>  <STRUCTURE_InChIKey>
SEQDDYPDSLOBDC-UHFFFAOYAE

>  <StudyType>
Carcinogenicity

>  <Endpoint>
TD50; Tumor Target Sites

>  <Species>
mouse

>  <ActivityScore_CPDBAS_Mouse>
0

>  <TD50_Mouse_Note>
no positive results

>  <TargetSites_Mouse_Male>
no positive results

>  <TargetSites_Mouse_Female>
no positive results

>  <ActivityOutcome_CPDBAS_Mouse>
inactive

>  <ActivityOutcome_CPDBAS_SingleCellCall>
inactive

>  <ActivityOutcome_CPDBAS_MultiCellCall>
inactive

>  <ActivityOutcome_CPDBAS_MultiCellCall_Details>
multisex inactive

>  <ChemicalPage_URL>
http://potency.berkeley.edu/chempages/TEMAZEPAM,%20PHARMACEUTICAL%20GRADE.html

$$$$



 16 16  0  0  0  0  0  0  0  0999 V2000
    7.3956   -2.1643    0.0000 C   0  0  0  0  0  0  0  0  0  0  0  0
    8.0587   -3.3156    0.0000 C   0  0  0  0  0  0  0  0  0  0  0  0
    9.2099   -2.6525    0.0000 C   0  0  0  0  0  0  0  0  0  0  0  0
    8.7218   -4.4668    0.0000 C   0  0  0  0  0  0  0  0  0  0  0  0
    6.9074   -3.9879    0.0000 N   0  0  0  0  0  0  0  0  0  0  0  0
    5.7562   -3.3156    0.0000 C   0  0  0  0  0  0  0  0  0  0  0  0
    4.6050   -3.9879    0.0000 C   0  0  3  0  0  0  0  0  0  0  0  0
    4.6050   -5.3141    0.0000 O   0  0  0  0  0  0  0  0  0  0  0  0
    3.4537   -3.3156    0.0000 C   0  0  0  0  0  0  0  0  0  0  0  0
    2.3025   -3.9879    0.0000 C   0  0  0  0  0  0  0  0  0  0  0  0
    1.1512   -3.3156    0.0000 C   0  0  0  0  0  0  0  0  0  0  0  0
    0.0000   -3.9879    0.0000 O   0  0  0  0  0  0  0  0  0  0  0  0
    1.1512   -1.9893    0.0000 C   0  0  0  0  0  0  0  0  0  0  0  0
    2.3025   -1.3262    0.0000 C   0  0  0  0  0  0  0  0  0  0  0  0
    3.4537   -1.9893    0.0000 C   0  0  0  0  0  0  0  0  0  0  0  0
    2.3025    0.0000    0.0000 O   0  0  0  0  0  0  0  0  0  0  0  0
  1  2  1  0  0  0  0
  2  3  1  0  0  0  0
  2  4  1  0  0  0  0
  2  5  1  0  0  0  0
  5  6  1  0  0  0  0
  6  7  1  0  0  0  0
  7  8  1  0  0  0  0
  7  9  1  0  0  0  0
  9 10  2  0  0  0  0
  9 15  1  0  0  0  0
 10 11  1  0  0  0  0
 11 12  1  0  0  0  0
 11 13  2  0  0  0  0
 13 14  1  0  0  0  0
 14 15  2  0  0  0  0
 14 16  1  0  0  0  0
M  END
>  <DSSTox_RID>
21310

>  <DSSTox_CID>
1310

>  <DSSTox_Generic_SID>
21310

>  <DSSTox_FileID>
1374_CPDBAS_v5d

>  <STRUCTURE_Formula>
C12H19NO3

>  <STRUCTURE_MolecularWeight>
225.2842

>  <STRUCTURE_ChemicalType>
defined organic

>  <STRUCTURE_TestedForm_DefinedOrganic>
parent

>  <STRUCTURE_Shown>
tested chemical

>  <TestSubstance_ChemicalName>
Terbutaline

>  <TestSubstance_CASRN>
23031-25-6

>  <TestSubstance_Description>
single chemical compound

>  <STRUCTURE_ChemicalName_IUPAC>
5-{2-[(1,1-dimethylethyl)amino]-1-hydroxyethyl}benzene-1,3-diol

>  <STRUCTURE_SMILES>
CC(C)(C)NCC(O)C1=CC(O)=CC(=C1)O

>  <STRUCTURE_Parent_SMILES>
CC(C)(C)NCC(O)C1=CC(O)=CC(=C1)O

>  <STRUCTURE_InChI>
InChI=1/C12H19NO3/c1-12(2,3)13-7-11(16)8-4-9(14)6-10(15)5-8/h4-6,11,13-16H,7H2,1-3H3

>  <STRUCTURE_InChIKey>
XWTYSIMOBUGWOL-UHFFFAOYAZ

>  <StudyType>
Carcinogenicity

>  <Endpoint>
TD50; Tumor Target Sites

>  <Species>
rat

>  <TD50_Rat_mg>
410

>  <TD50_Rat_mmol>
1.82

>  <ActivityScore_CPDBAS_Rat>
23

>  <TargetSites_Rat_Female>
mesovarium

>  <ActivityOutcome_CPDBAS_Rat>
active

>  <ActivityOutcome_CPDBAS_SingleCellCall>
active

>  <ChemicalPage_URL>
http://potency.berkeley.edu/chempages/TERBUTALINE.html

$$$$



 15 15  0  0  0  0  0  0  0  0999 V2000
    4.6527   -4.6061    0.0000 Cl  0  0  0  0  0  0  0  0  0  0  0  0
    3.9880   -3.4563    0.0000 C   0  0  0  0  0  0  0  0  0  0  0  0
    2.6587   -3.4563    0.0000 C   0  0  0  0  0  0  0  0  0  0  0  0
    1.9940   -4.6061    0.0000 Cl  0  0  0  0  0  0  0  0  0  0  0  0
    1.9940   -2.3064    0.0000 C   0  0  0  0  0  0  0  0  0  0  0  0
    2.6587   -1.1499    0.0000 C   0  0  0  0  0  0  0  0  0  0  0  0
    1.9940    0.0000    0.0000 Cl  0  0  0  0  0  0  0  0  0  0  0  0
    3.9880   -1.1499    0.0000 C   0  0  0  0  0  0  0  0  0  0  0  0
    4.6527   -2.3064    0.0000 C   0  0  0  0  0  0  0  0  0  0  0  0
    5.9820   -2.3064    0.0000 O   0  0  0  0  0  0  0  0  0  0  0  0
    6.6466   -1.1499    0.0000 C   0  0  0  0  0  0  0  0  0  0  0  0
    4.6527    0.0000    0.0000 Cl  0  0  0  0  0  0  0  0  0  0  0  0
    0.6647   -2.3064    0.0000 N   0  3  0  0  0  0  0  0  0  0  0  0
    0.0000   -3.4563    0.0000 O   0  5  0  0  0  0  0  0  0  0  0  0
    0.0000   -1.1499    0.0000 O   0  0  0  0  0  0  0  0  0  0  0  0
  1  2  1  0  0  0  0
  2  3  2  0  0  0  0
  2  9  1  0  0  0  0
  3  4  1  0  0  0  0
  3  5  1  0  0  0  0
  5  6  2  0  0  0  0
  5 13  1  0  0  0  0
  6  7  1  0  0  0  0
  6  8  1  0  0  0  0
  8  9  2  0  0  0  0
  8 12  1  0  0  0  0
  9 10  1  0  0  0  0
 10 11  1  0  0  0  0
 13 14  1  0  0  0  0
 13 15  2  0  0  0  0
M  END
>  <DSSTox_RID>
21313

>  <DSSTox_CID>
1313

>  <DSSTox_Generic_SID>
21313

>  <DSSTox_FileID>
1376_CPDBAS_v5d

>  <STRUCTURE_Formula>
C7H3Cl4NO3

>  <STRUCTURE_MolecularWeight>
290.9156

>  <STRUCTURE_ChemicalType>
defined organic

>  <STRUCTURE_TestedForm_DefinedOrganic>
parent

>  <STRUCTURE_Shown>
tested chemical

>  <TestSubstance_ChemicalName>
2,3,5,6-Tetrachloro-4-nitroanisole

>  <TestSubstance_CASRN>
2438-88-2

>  <TestSubstance_Description>
single chemical compound

>  <STRUCTURE_ChemicalName_IUPAC>
1,2,4,5-tetrachloro-3-methoxy-6-nitrobenzene

>  <STRUCTURE_SMILES>
Clc1c([N+]([O-])=O)c(Cl)c(Cl)c(OC)c1Cl

>  <STRUCTURE_Parent_SMILES>
Clc1c([N+]([O-])=O)c(Cl)c(Cl)c(OC)c1Cl

>  <STRUCTURE_InChI>
InChI=1/C7H3Cl4NO3/c1-15-7-4(10)2(8)6(12(13)14)3(9)5(7)11/h1H3

>  <STRUCTURE_InChIKey>
BGPPUXMKKQMWLV-UHFFFAOYAF

>  <StudyType>
Carcinogenicity

>  <Endpoint>
TD50; Tumor Target Sites

>  <Species>
rat; mouse

>  <ActivityOutcome_CPDBAS_Mutagenicity>
inactive

>  <ActivityScore_CPDBAS_Rat>
0

>  <TD50_Rat_Note>
no positive results

>  <TargetSites_Rat_Male>
no positive results

>  <TargetSites_Rat_Female>
no positive results

>  <ActivityOutcome_CPDBAS_Rat>
inactive

>  <ActivityScore_CPDBAS_Mouse>
0

>  <TD50_Mouse_Note>
no positive results

>  <TargetSites_Mouse_Male>
no positive results

>  <TargetSites_Mouse_Female>
no positive results

>  <ActivityOutcome_CPDBAS_Mouse>
inactive

>  <ActivityOutcome_CPDBAS_SingleCellCall>
inactive

>  <ActivityOutcome_CPDBAS_MultiCellCall>
inactive

>  <ActivityOutcome_CPDBAS_MultiCellCall_Details>
multisex inactive; multispecies inactive

>  <NTP_TechnicalReport>
TR 114

>  <ChemicalPage_URL>
http://potency.berkeley.edu/chempages/2,3,5,6-TETRACHLORO-4-NITROANISOLE.html

$$$$



 18 19  0  0  0  0  0  0  0  0999 V2000
    3.9941   -4.6086    0.0000 Cl  0  0  0  0  0  0  0  0  0  0  0  0
    3.3238   -3.4541    0.0000 C   0  0  0  0  0  0  0  0  0  0  0  0
    1.9924   -3.4541    0.0000 C   0  0  0  0  0  0  0  0  0  0  0  0
    1.3314   -2.3090    0.0000 C   0  0  0  0  0  0  0  0  0  0  0  0
    1.9924   -1.1545    0.0000 C   0  0  0  0  0  0  0  0  0  0  0  0
    3.3238   -1.1545    0.0000 C   0  0  0  0  0  0  0  0  0  0  0  0
    3.9941   -2.3090    0.0000 C   0  0  0  0  0  0  0  0  0  0  0  0
    5.3162   -2.3090    0.0000 C   0  0  0  0  0  0  0  0  0  0  0  0
    5.9865   -1.1545    0.0000 C   0  0  0  0  0  0  0  0  0  0  0  0
    7.3179   -1.1545    0.0000 C   0  0  0  0  0  0  0  0  0  0  0  0
    7.9789   -2.3090    0.0000 C   0  0  0  0  0  0  0  0  0  0  0  0
    7.3179   -3.4541    0.0000 C   0  0  0  0  0  0  0  0  0  0  0  0
    5.9865   -3.4541    0.0000 C   0  0  0  0  0  0  0  0  0  0  0  0
    7.9789   -4.6086    0.0000 Cl  0  0  0  0  0  0  0  0  0  0  0  0
    9.3103   -2.3090    0.0000 N   0  0  0  0  0  0  0  0  0  0  0  0
    5.3162    0.0000    0.0000 Cl  0  0  0  0  0  0  0  0  0  0  0  0
    1.3314    0.0000    0.0000 Cl  0  0  0  0  0  0  0  0  0  0  0  0
    0.0000   -2.3090    0.0000 N   0  0  0  0  0  0  0  0  0  0  0  0
  1  2  1  0  0  0  0
  2  3  2  0  0  0  0
  2  7  1  0  0  0  0
  3  4  1  0  0  0  0
  4  5  2  0  0  0  0
  4 18  1  0  0  0  0
  5  6  1  0  0  0  0
  5 17  1  0  0  0  0
  6  7  2  0  0  0  0
  7  8  1  0  0  0  0
  8  9  2  0  0  0  0
  8 13  1  0  0  0  0
  9 10  1  0  0  0  0
  9 16  1  0  0  0  0
 10 11  2  0  0  0  0
 11 12  1  0  0  0  0
 11 15  1  0  0  0  0
 12 13  2  0  0  0  0
 12 14  1  0  0  0  0
M  END
>  <DSSTox_RID>
21314

>  <DSSTox_CID>
1314

>  <DSSTox_Generic_SID>
21314

>  <DSSTox_FileID>
1377_CPDBAS_v5d

>  <STRUCTURE_Formula>
C12H8Cl4N2

>  <STRUCTURE_MolecularWeight>
322.0206

>  <STRUCTURE_ChemicalType>
defined organic

>  <STRUCTURE_TestedForm_DefinedOrganic>
parent

>  <STRUCTURE_Shown>
tested chemical

>  <TestSubstance_ChemicalName>
2,2',5,5'-Tetrachlorobenzidine

>  <TestSubstance_CASRN>
15721-02-5

>  <TestSubstance_Description>
single chemical compound

>  <STRUCTURE_ChemicalName_IUPAC>
2,2',5,5'-tetrachlorobiphenyl-4,4'-diamine

>  <STRUCTURE_SMILES>
ClC1=CC(=C(C=C1C2=C(C=C(C(=C2)Cl)N)Cl)Cl)N

>  <STRUCTURE_Parent_SMILES>
ClC1=CC(=C(C=C1C2=C(C=C(C(=C2)Cl)N)Cl)Cl)N

>  <STRUCTURE_InChI>
InChI=1/C12H8Cl4N2/c13-7-3-11(17)9(15)1-5(7)6-2-10(16)12(18)4-8(6)14/h1-4H,17-18H2

>  <STRUCTURE_InChIKey>
UXOXUHMFQZEAFR-UHFFFAOYAO

>  <StudyType>
Carcinogenicity

>  <Endpoint>
TD50; Tumor Target Sites

>  <Species>
rat; mouse

>  <ActivityOutcome_CPDBAS_Mutagenicity>
active

>  <ActivityScore_CPDBAS_Rat>
0

>  <TD50_Rat_Note>
no positive results

>  <TargetSites_Rat_Male>
no positive results

>  <TargetSites_Rat_Female>
no positive results

>  <ActivityOutcome_CPDBAS_Rat>
inactive

>  <ActivityScore_CPDBAS_Mouse>
0

>  <TD50_Mouse_Note>
no positive results

>  <TargetSites_Mouse_Female>
no positive results

>  <ActivityOutcome_CPDBAS_Mouse>
inactive

>  <ActivityOutcome_CPDBAS_SingleCellCall>
inactive

>  <ActivityOutcome_CPDBAS_MultiCellCall>
inactive

>  <ActivityOutcome_CPDBAS_MultiCellCall_Details>
multisex inactive; multispecies inactive

>  <ChemicalPage_URL>
http://potency.berkeley.edu/chempages/2,2',5,5'-TETRACHLOROBENZIDINE.html

$$$$



 18 20  0  0  0  0  0  0  0  0999 V2000
    9.2104   -2.6618    0.0000 Cl  0  0  0  0  0  0  0  0  0  0  0  0
    8.0591   -1.9986    0.0000 C   0  0  0  0  0  0  0  0  0  0  0  0
    6.9078   -2.6618    0.0000 C   0  0  0  0  0  0  0  0  0  0  0  0
    5.7565   -1.9986    0.0000 C   0  0  0  0  0  0  0  0  0  0  0  0
    5.7565   -0.6631    0.0000 C   0  0  0  0  0  0  0  0  0  0  0  0
    6.9078    0.0000    0.0000 C   0  0  0  0  0  0  0  0  0  0  0  0
    8.0591   -0.6631    0.0000 C   0  0  0  0  0  0  0  0  0  0  0  0
    9.2104    0.0000    0.0000 Cl  0  0  0  0  0  0  0  0  0  0  0  0
    4.6052    0.0000    0.0000 O   0  0  0  0  0  0  0  0  0  0  0  0
    3.4539   -0.6631    0.0000 C   0  0  0  0  0  0  0  0  0  0  0  0
    3.4539   -1.9986    0.0000 C   0  0  0  0  0  0  0  0  0  0  0  0
    2.3026   -2.6618    0.0000 C   0  0  0  0  0  0  0  0  0  0  0  0
    1.1513   -1.9986    0.0000 C   0  0  0  0  0  0  0  0  0  0  0  0
    1.1513   -0.6631    0.0000 C   0  0  0  0  0  0  0  0  0  0  0  0
    2.3026    0.0000    0.0000 C   0  0  0  0  0  0  0  0  0  0  0  0
    0.0000    0.0000    0.0000 Cl  0  0  0  0  0  0  0  0  0  0  0  0
    0.0000   -2.6618    0.0000 Cl  0  0  0  0  0  0  0  0  0  0  0  0
    4.6052   -2.6618    0.0000 O   0  0  0  0  0  0  0  0  0  0  0  0
  1  2  1  0  0  0  0
  2  3  2  0  0  0  0
  2  7  1  0  0  0  0
  3  4  1  0  0  0  0
  4  5  2  0  0  0  0
  4 18  1  0  0  0  0
  5  6  1  0  0  0  0
  5  9  1  0  0  0  0
  6  7  2  0  0  0  0
  7  8  1  0  0  0  0
  9 10  1  0  0  0  0
 10 11  2  0  0  0  0
 10 15  1  0  0  0  0
 11 12  1  0  0  0  0
 11 18  1  0  0  0  0
 12 13  2  0  0  0  0
 13 14  1  0  0  0  0
 13 17  1  0  0  0  0
 14 15  2  0  0  0  0
 14 16  1  0  0  0  0
M  END
>  <DSSTox_RID>
21315

>  <DSSTox_CID>
1315

>  <DSSTox_Generic_SID>
21315

>  <DSSTox_FileID>
1378_CPDBAS_v5d

>  <STRUCTURE_Formula>
C12H4Cl4O2

>  <STRUCTURE_MolecularWeight>
321.971

>  <STRUCTURE_ChemicalType>
defined organic

>  <STRUCTURE_TestedForm_DefinedOrganic>
parent

>  <STRUCTURE_Shown>
tested chemical

>  <TestSubstance_ChemicalName>
2,3,7,8-Tetrachlorodibenzo-p-dioxin

>  <TestSubstance_CASRN>
1746-01-6

>  <TestSubstance_Description>
single chemical compound

>  <STRUCTURE_ChemicalName_IUPAC>
2,3,7,8-tetrachlorooxanthrene

>  <STRUCTURE_SMILES>
ClC1=CC2=C(C=C1Cl)OC3=C(C=C(C(=C3)Cl)Cl)O2

>  <STRUCTURE_Parent_SMILES>
ClC1=CC2=C(C=C1Cl)OC3=C(C=C(C(=C3)Cl)Cl)O2

>  <STRUCTURE_InChI>
InChI=1/C12H4Cl4O2/c13-5-1-9-10(2-6(5)14)18-12-4-8(16)7(15)3-11(12)17-9/h1-4H

>  <STRUCTURE_InChIKey>
HGUFODBRKLSHSI-UHFFFAOYAA

>  <StudyType>
Carcinogenicity

>  <Endpoint>
TD50; Tumor Target Sites

>  <Species>
rat; mouse

>  <ActivityOutcome_CPDBAS_Mutagenicity>
inactive

>  <TD50_Rat_mg>
0.0000235

>  <TD50_Rat_mmol>
0.000000073

>  <ActivityScore_CPDBAS_Rat>
100

>  <TD50_Rat_Note>
TD50 is harmonic mean of more than one positive test; greater than ten-fold variation among TD50 values for positive results

>  <TargetSites_Rat_Male>
oral cavity; thyroid gland

>  <TargetSites_Rat_Female>
liver; lung

>  <ActivityOutcome_CPDBAS_Rat>
active

>  <TD50_Mouse_mg>
0.000156

>  <TD50_Mouse_mmol>
0.000000485

>  <ActivityScore_CPDBAS_Mouse>
100

>  <TD50_Mouse_Note>
TD50 is harmonic mean of more than one positive test

>  <TargetSites_Mouse_Male>
liver

>  <TargetSites_Mouse_Female>
liver; thyroid gland

>  <ActivityOutcome_CPDBAS_Mouse>
active

>  <ActivityOutcome_CPDBAS_SingleCellCall>
active

>  <ActivityOutcome_CPDBAS_MultiCellCall>
active

>  <ActivityOutcome_CPDBAS_MultiCellCall_Details>
multisite active; multisex active; multispecies active

>  <Note_CPDBAS>
TD50_Rat modified v5a

>  <NTP_TechnicalReport>
TR 201; additional results included in CPDB

>  <ChemicalPage_URL>
http://potency.berkeley.edu/chempages/2,3,7,8-TETRACHLORODIBENZO-p-DIOXIN.html

$$$$



 19 20  0  0  0  0  0  0  0  0999 V2000
    1.5115   -3.9448    0.0000 O   0  0  0  0  0  0  0  0  0  0  0  0
    2.6636   -4.6084    0.0000 S   0  0  0  0  0  0  0  0  0  0  0  0
    3.8157   -5.2720    0.0000 O   0  0  0  0  0  0  0  0  0  0  0  0
    3.3272   -3.4563    0.0000 C   0  0  0  0  0  0  0  0  0  0  0  0
    2.6636   -2.3042    0.0000 C   0  0  0  0  0  0  0  0  0  0  0  0
    3.3272   -1.1521    0.0000 C   0  0  0  0  0  0  0  0  0  0  0  0
    4.6545   -1.1521    0.0000 C   0  0  0  0  0  0  0  0  0  0  0  0
    5.3181   -2.3042    0.0000 C   0  0  0  0  0  0  0  0  0  0  0  0
    4.6545   -3.4563    0.0000 C   0  0  0  0  0  0  0  0  0  0  0  0
    5.3181   -4.6084    0.0000 Cl  0  0  0  0  0  0  0  0  0  0  0  0
    5.3181    0.0000    0.0000 Cl  0  0  0  0  0  0  0  0  0  0  0  0
    2.6636    0.0000    0.0000 Cl  0  0  0  0  0  0  0  0  0  0  0  0
    2.0000   -5.7605    0.0000 C   0  0  0  0  0  0  0  0  0  0  0  0
    2.6636   -6.9126    0.0000 C   0  0  0  0  0  0  0  0  0  0  0  0
    2.0000   -8.0647    0.0000 C   0  0  0  0  0  0  0  0  0  0  0  0
    0.6636   -8.0647    0.0000 C   0  0  0  0  0  0  0  0  0  0  0  0
    0.0000   -6.9126    0.0000 C   0  0  0  0  0  0  0  0  0  0  0  0
    0.6636   -5.7605    0.0000 C   0  0  0  0  0  0  0  0  0  0  0  0
    0.0000   -9.2167    0.0000 Cl  0  0  0  0  0  0  0  0  0  0  0  0
  1  2  2  0  0  0  0
  2  3  2  0  0  0  0
  2  4  1  0  0  0  0
  2 13  1  0  0  0  0
  4  5  2  0  0  0  0
  4  9  1  0  0  0  0
  5  6  1  0  0  0  0
  6  7  2  0  0  0  0
  6 12  1  0  0  0  0
  7  8  1  0  0  0  0
  7 11  1  0  0  0  0
  8  9  2  0  0  0  0
  9 10  1  0  0  0  0
 13 14  2  0  0  0  0
 13 18  1  0  0  0  0
 14 15  1  0  0  0  0
 15 16  2  0  0  0  0
 16 17  1  0  0  0  0
 16 19  1  0  0  0  0
 17 18  2  0  0  0  0
M  END
>  <DSSTox_RID>
21316

>  <DSSTox_CID>
1316

>  <DSSTox_Generic_SID>
21316

>  <DSSTox_FileID>
1379_CPDBAS_v5d

>  <STRUCTURE_Formula>
C12H6Cl4O2S

>  <STRUCTURE_MolecularWeight>
356.0518

>  <STRUCTURE_ChemicalType>
defined organic

>  <STRUCTURE_TestedForm_DefinedOrganic>
parent

>  <STRUCTURE_Shown>
tested chemical

>  <TestSubstance_ChemicalName>
2,4,5,4'-Tetrachlorodiphenyl sulfone

>  <TestSubstance_CASRN>
116-29-0

>  <TestSubstance_Description>
single chemical compound

>  <STRUCTURE_ChemicalName_IUPAC>
1,2,4-trichloro-5-[(4-chlorophenyl)sulfonyl]benzene

>  <STRUCTURE_SMILES>
O=S(=O)(C1=CC(=C(C=C1Cl)Cl)Cl)C2=CC=C(C=C2)Cl

>  <STRUCTURE_Parent_SMILES>
O=S(=O)(C1=CC(=C(C=C1Cl)Cl)Cl)C2=CC=C(C=C2)Cl

>  <STRUCTURE_InChI>
InChI=1/C12H6Cl4O2S/c13-7-1-3-8(4-2-7)19(17,18)12-6-10(15)9(14)5-11(12)16/h1-6H

>  <STRUCTURE_InChIKey>
MLGCXEBRWGEOQX-UHFFFAOYAO

>  <StudyType>
Carcinogenicity

>  <Endpoint>
TD50; Tumor Target Sites

>  <Species>
mouse

>  <ActivityScore_CPDBAS_Mouse>
0

>  <TD50_Mouse_Note>
no positive results

>  <TargetSites_Mouse_Male>
no positive results

>  <TargetSites_Mouse_Female>
no positive results

>  <ActivityOutcome_CPDBAS_Mouse>
inactive

>  <ActivityOutcome_CPDBAS_SingleCellCall>
inactive

>  <ActivityOutcome_CPDBAS_MultiCellCall>
inactive

>  <ActivityOutcome_CPDBAS_MultiCellCall_Details>
multisex inactive

>  <ChemicalPage_URL>
http://potency.berkeley.edu/chempages/2,4,5,4'-TETRACHLORODIPHENYL%20SULFONE.html

$$$$



  6  5  0  0  0  0  0  0  0  0999 V2000
    1.8169   -2.3040    0.0000 Cl  0  0  0  0  0  0  0  0  0  0  0  0
    1.1503   -1.1537    0.0000 C   0  0  0  0  0  0  0  0  0  0  0  0
    2.3040   -0.4870    0.0000 C   0  0  0  0  0  0  0  0  0  0  0  0
    3.4542   -1.1537    0.0000 Cl  0  0  0  0  0  0  0  0  0  0  0  0
    0.0000   -1.8169    0.0000 Cl  0  0  0  0  0  0  0  0  0  0  0  0
    0.4870    0.0000    0.0000 Cl  0  0  0  0  0  0  0  0  0  0  0  0
  1  2  1  0  0  0  0
  2  3  1  0  0  0  0
  2  5  1  0  0  0  0
  2  6  1  0  0  0  0
  3  4  1  0  0  0  0
M  END
>  <DSSTox_RID>
21317

>  <DSSTox_CID>
1317

>  <DSSTox_Generic_SID>
21317

>  <DSSTox_FileID>
1380_CPDBAS_v5d

>  <STRUCTURE_Formula>
C2H2Cl4

>  <STRUCTURE_MolecularWeight>
167.8493

>  <STRUCTURE_ChemicalType>
defined organic

>  <STRUCTURE_TestedForm_DefinedOrganic>
parent

>  <STRUCTURE_Shown>
tested chemical

>  <TestSubstance_ChemicalName>
1,1,1,2-Tetrachloroethane

>  <TestSubstance_CASRN>
630-20-6

>  <TestSubstance_Description>
single chemical compound

>  <STRUCTURE_ChemicalName_IUPAC>
1,1,1,2-tetrachloroethane

>  <STRUCTURE_SMILES>
ClC(CCl)(Cl)Cl

>  <STRUCTURE_Parent_SMILES>
ClC(CCl)(Cl)Cl

>  <STRUCTURE_InChI>
InChI=1/C2H2Cl4/c3-1-2(4,5)6/h1H2

>  <STRUCTURE_InChIKey>
QVLAWKAXOMEXPM-UHFFFAOYAE

>  <StudyType>
Carcinogenicity

>  <Endpoint>
TD50; Tumor Target Sites

>  <Species>
rat; mouse

>  <ActivityOutcome_CPDBAS_Mutagenicity>
inactive

>  <ActivityScore_CPDBAS_Rat>
0

>  <TD50_Rat_Note>
no positive results

>  <TargetSites_Rat_Male>
no positive results

>  <TargetSites_Rat_Female>
no positive results

>  <ActivityOutcome_CPDBAS_Rat>
inactive

>  <TD50_Mouse_mg>
182

>  <TD50_Mouse_mmol>
1.08

>  <ActivityScore_CPDBAS_Mouse>
28

>  <TD50_Mouse_Note>
TD50 is harmonic mean of more than one positive test

>  <TargetSites_Mouse_Male>
liver

>  <TargetSites_Mouse_Female>
liver

>  <ActivityOutcome_CPDBAS_Mouse>
active

>  <ActivityOutcome_CPDBAS_SingleCellCall>
active

>  <ActivityOutcome_CPDBAS_MultiCellCall>
active

>  <ActivityOutcome_CPDBAS_MultiCellCall_Details>
multisex active

>  <NTP_TechnicalReport>
TR 237

>  <ChemicalPage_URL>
http://potency.berkeley.edu/chempages/1,1,1,2-TETRACHLOROETHANE.html

$$$$



  6  5  0  0  0  0  0  0  0  0999 V2000
    1.3307    0.0000    0.0000 Cl  0  0  0  0  0  0  0  0  0  0  0  0
    1.9943   -1.1509    0.0000 C   0  0  0  0  0  0  0  0  0  0  0  0
    1.3307   -2.3053    0.0000 C   0  0  0  0  0  0  0  0  0  0  0  0
    1.9943   -3.4563    0.0000 Cl  0  0  0  0  0  0  0  0  0  0  0  0
    0.0000   -2.3053    0.0000 Cl  0  0  0  0  0  0  0  0  0  0  0  0
    3.3250   -1.1509    0.0000 Cl  0  0  0  0  0  0  0  0  0  0  0  0
  1  2  1  0  0  0  0
  2  3  1  0  0  0  0
  2  6  1  0  0  0  0
  3  4  1  0  0  0  0
  3  5  1  0  0  0  0
M  END
>  <DSSTox_RID>
21318

>  <DSSTox_CID>
1318

>  <DSSTox_Generic_SID>
21318

>  <DSSTox_FileID>
1381_CPDBAS_v5d

>  <STRUCTURE_Formula>
C2H2Cl4

>  <STRUCTURE_MolecularWeight>
167.8493

>  <STRUCTURE_ChemicalType>
defined organic

>  <STRUCTURE_TestedForm_DefinedOrganic>
parent

>  <STRUCTURE_Shown>
tested chemical

>  <TestSubstance_ChemicalName>
1,1,2,2-Tetrachloroethane

>  <TestSubstance_CASRN>
79-34-5

>  <TestSubstance_Description>
single chemical compound

>  <STRUCTURE_ChemicalName_IUPAC>
1,1,2,2-tetrachloroethane

>  <STRUCTURE_SMILES>
ClC(C(Cl)Cl)Cl

>  <STRUCTURE_Parent_SMILES>
ClC(C(Cl)Cl)Cl

>  <STRUCTURE_InChI>
InChI=1/C2H2Cl4/c3-1(4)2(5)6/h1-2H

>  <STRUCTURE_InChIKey>
QPFMBZIOSGYJDE-UHFFFAOYAH

>  <StudyType>
Carcinogenicity

>  <Endpoint>
TD50; Tumor Target Sites

>  <Species>
rat; mouse

>  <ActivityOutcome_CPDBAS_Mutagenicity>
inactive

>  <ActivityScore_CPDBAS_Rat>
0

>  <TD50_Rat_Note>
no positive results

>  <TargetSites_Rat_Male>
no positive results

>  <TargetSites_Rat_Female>
no positive results

>  <ActivityOutcome_CPDBAS_Rat>
inactive

>  <TD50_Mouse_mg>
38.3

>  <TD50_Mouse_mmol>
0.228

>  <ActivityScore_CPDBAS_Mouse>
35

>  <TD50_Mouse_Note>
TD50 is harmonic mean of more than one positive test

>  <TargetSites_Mouse_Male>
liver

>  <TargetSites_Mouse_Female>
liver

>  <ActivityOutcome_CPDBAS_Mouse>
active

>  <ActivityOutcome_CPDBAS_SingleCellCall>
active

>  <ActivityOutcome_CPDBAS_MultiCellCall>
active

>  <ActivityOutcome_CPDBAS_MultiCellCall_Details>
multisex active

>  <NTP_TechnicalReport>
TR 27

>  <ChemicalPage_URL>
http://potency.berkeley.edu/chempages/1,1,2,2-TETRACHLOROETHANE.html

$$$$



  6  5  0  0  0  0  0  0  0  0999 V2000
    1.3307    0.0000    0.0000 Cl  0  0  0  0  0  0  0  0  0  0  0  0
    1.9943   -1.1509    0.0000 C   0  0  0  0  0  0  0  0  0  0  0  0
    1.3307   -2.3053    0.0000 C   0  0  0  0  0  0  0  0  0  0  0  0
    1.9943   -3.4563    0.0000 Cl  0  0  0  0  0  0  0  0  0  0  0  0
    0.0000   -2.3053    0.0000 Cl  0  0  0  0  0  0  0  0  0  0  0  0
    3.3250   -1.1509    0.0000 Cl  0  0  0  0  0  0  0  0  0  0  0  0
  1  2  1  0  0  0  0
  2  3  2  0  0  0  0
  2  6  1  0  0  0  0
  3  4  1  0  0  0  0
  3  5  1  0  0  0  0
M  END
>  <DSSTox_RID>
21319

>  <DSSTox_CID>
1319

>  <DSSTox_Generic_SID>
21319

>  <DSSTox_FileID>
1382_CPDBAS_v5d

>  <STRUCTURE_Formula>
C2Cl4

>  <STRUCTURE_MolecularWeight>
165.8334

>  <STRUCTURE_ChemicalType>
defined organic

>  <STRUCTURE_TestedForm_DefinedOrganic>
parent

>  <STRUCTURE_Shown>
tested chemical

>  <TestSubstance_ChemicalName>
Tetrachloroethylene

>  <TestSubstance_CASRN>
127-18-4

>  <TestSubstance_Description>
single chemical compound

>  <STRUCTURE_ChemicalName_IUPAC>
tetrachloroethene

>  <STRUCTURE_SMILES>
ClC(=C(Cl)Cl)Cl

>  <STRUCTURE_Parent_SMILES>
ClC(=C(Cl)Cl)Cl

>  <STRUCTURE_InChI>
InChI=1/C2Cl4/c3-1(4)2(5)6

>  <STRUCTURE_InChIKey>
CYTYCFOTNPOANT-UHFFFAOYAO

>  <StudyType>
Carcinogenicity

>  <Endpoint>
TD50; Tumor Target Sites

>  <Species>
rat; mouse

>  <ActivityOutcome_CPDBAS_Mutagenicity>
inactive

>  <TD50_Rat_mg>
145

>  <TD50_Rat_mmol>
0.874

>  <ActivityScore_CPDBAS_Rat>
26

>  <TD50_Rat_Note>
TD50 is harmonic mean of more than one positive test

>  <TargetSites_Rat_Male>
hematopoietic system; kidney

>  <TargetSites_Rat_Female>
hematopoietic system

>  <ActivityOutcome_CPDBAS_Rat>
active

>  <TD50_Mouse_mg>
158

>  <TD50_Mouse_mmol>
0.953

>  <ActivityScore_CPDBAS_Mouse>
28

>  <TD50_Mouse_Note>
TD50 is harmonic mean of more than one positive test

>  <TargetSites_Mouse_Male>
harderian gland; liver

>  <TargetSites_Mouse_Female>
liver

>  <ActivityOutcome_CPDBAS_Mouse>
active

>  <ActivityOutcome_CPDBAS_SingleCellCall>
active

>  <ActivityOutcome_CPDBAS_MultiCellCall>
active

>  <ActivityOutcome_CPDBAS_MultiCellCall_Details>
multisite active; multisex active; multispecies active

>  <Note_CPDBAS>
TD50_Rat modified v5a; TD50_Mouse modified v5a; TargetSites_Mouse_Male modified v5a

>  <NTP_TechnicalReport>
TR 311

>  <ChemicalPage_URL>
http://potency.berkeley.edu/chempages/TETRACHLOROETHYLENE.html

$$$$



 16 15  0  0  0  0  0  0  0  0999 V2000
    1.9952   -4.6036    0.0000 S   0  0  0  0  0  0  0  0  0  0  0  0
    2.6603   -3.4549    0.0000 C   0  0  0  0  0  0  0  0  0  0  0  0
    1.9952   -2.2975    0.0000 N   0  0  0  0  0  0  0  0  0  0  0  0
    0.6651   -2.2975    0.0000 C   0  0  0  0  0  0  0  0  0  0  0  0
    0.0000   -3.4549    0.0000 C   0  0  0  0  0  0  0  0  0  0  0  0
    2.6603   -1.1487    0.0000 C   0  0  0  0  0  0  0  0  0  0  0  0
    1.9952    0.0000    0.0000 C   0  0  0  0  0  0  0  0  0  0  0  0
    3.9904   -3.4549    0.0000 S   0  0  0  0  0  0  0  0  0  0  0  0
    4.6468   -4.6036    0.0000 S   0  0  0  0  0  0  0  0  0  0  0  0
    5.9769   -4.6036    0.0000 C   0  0  0  0  0  0  0  0  0  0  0  0
    6.6420   -5.7524    0.0000 S   0  0  0  0  0  0  0  0  0  0  0  0
    6.6420   -3.4549    0.0000 N   0  0  0  0  0  0  0  0  0  0  0  0
    5.9769   -2.2975    0.0000 C   0  0  0  0  0  0  0  0  0  0  0  0
    4.6468   -2.2975    0.0000 C   0  0  0  0  0  0  0  0  0  0  0  0
    7.9721   -3.4549    0.0000 C   0  0  0  0  0  0  0  0  0  0  0  0
    8.6372   -2.2975    0.0000 C   0  0  0  0  0  0  0  0  0  0  0  0
  1  2  2  0  0  0  0
  2  3  1  0  0  0  0
  2  8  1  0  0  0  0
  3  4  1  0  0  0  0
  3  6  1  0  0  0  0
  4  5  1  0  0  0  0
  6  7  1  0  0  0  0
  8  9  1  0  0  0  0
  9 10  1  0  0  0  0
 10 11  2  0  0  0  0
 10 12  1  0  0  0  0
 12 13  1  0  0  0  0
 12 15  1  0  0  0  0
 13 14  1  0  0  0  0
 15 16  1  0  0  0  0
M  END
>  <DSSTox_RID>
21322

>  <DSSTox_CID>
1322

>  <DSSTox_Generic_SID>
21322

>  <DSSTox_FileID>
1385_CPDBAS_v5d

>  <STRUCTURE_Formula>
C10H20N2S4

>  <STRUCTURE_MolecularWeight>
296.5392

>  <STRUCTURE_ChemicalType>
defined organic

>  <STRUCTURE_TestedForm_DefinedOrganic>
parent

>  <STRUCTURE_Shown>
tested chemical

>  <TestSubstance_ChemicalName>
Tetraethylthiuram disulfide

>  <TestSubstance_CASRN>
97-77-8

>  <TestSubstance_Description>
single chemical compound

>  <STRUCTURE_ChemicalName_IUPAC>
1,1',1'',1'''-[dithiobis(carbonothioylnitrilo)]tetraethane

>  <STRUCTURE_SMILES>
S=C(N(CC)CC)SSC(=S)N(CC)CC

>  <STRUCTURE_Parent_SMILES>
S=C(N(CC)CC)SSC(=S)N(CC)CC

>  <STRUCTURE_InChI>
InChI=1/C10H20N2S4/c1-5-11(6-2)9(13)15-16-10(14)12(7-3)8-4/h5-8H2,1-4H3

>  <STRUCTURE_InChIKey>
AUZONCFQVSMFAP-UHFFFAOYAF

>  <StudyType>
Carcinogenicity

>  <Endpoint>
TD50; Tumor Target Sites

>  <Species>
rat; mouse

>  <ActivityOutcome_CPDBAS_Mutagenicity>
inactive

>  <ActivityScore_CPDBAS_Rat>
0

>  <TD50_Rat_Note>
no positive results

>  <TargetSites_Rat_Male>
no positive results

>  <TargetSites_Rat_Female>
no positive results

>  <ActivityOutcome_CPDBAS_Rat>
inactive

>  <ActivityScore_CPDBAS_Mouse>
0

>  <TD50_Mouse_Note>
no positive results

>  <TargetSites_Mouse_Male>
no positive results

>  <TargetSites_Mouse_Female>
no positive results

>  <ActivityOutcome_CPDBAS_Mouse>
inactive

>  <ActivityOutcome_CPDBAS_SingleCellCall>
inactive

>  <ActivityOutcome_CPDBAS_MultiCellCall>
inactive

>  <ActivityOutcome_CPDBAS_MultiCellCall_Details>
multisex inactive; multispecies inactive

>  <NTP_TechnicalReport>
TR 166

>  <ChemicalPage_URL>
http://potency.berkeley.edu/chempages/TETRAETHYLTHIURAM%20DISULFIDE.html

$$$$



  6  5  0  0  0  0  0  0  0  0999 V2000
    3.4542   -1.1537    0.0000 F   0  0  0  0  0  0  0  0  0  0  0  0
    2.3040   -0.4870    0.0000 C   0  0  0  0  0  0  0  0  0  0  0  0
    1.1503   -1.1537    0.0000 C   0  0  0  0  0  0  0  0  0  0  0  0
    1.8169   -2.3040    0.0000 F   0  0  0  0  0  0  0  0  0  0  0  0
    0.0000   -1.8169    0.0000 F   0  0  0  0  0  0  0  0  0  0  0  0
    0.4870    0.0000    0.0000 F   0  0  0  0  0  0  0  0  0  0  0  0
  1  2  1  0  0  0  0
  2  3  1  0  0  0  0
  3  4  1  0  0  0  0
  3  5  1  0  0  0  0
  3  6  1  0  0  0  0
M  END
>  <DSSTox_RID>
21324

>  <DSSTox_CID>
1324

>  <DSSTox_Generic_SID>
21324

>  <DSSTox_FileID>
1387_CPDBAS_v5d

>  <STRUCTURE_Formula>
C2H2F4

>  <STRUCTURE_MolecularWeight>
102.0309

>  <STRUCTURE_ChemicalType>
defined organic

>  <STRUCTURE_TestedForm_DefinedOrganic>
parent

>  <STRUCTURE_Shown>
tested chemical

>  <TestSubstance_ChemicalName>
1,1,1,2-Tetrafluoroethane

>  <TestSubstance_CASRN>
811-97-2

>  <TestSubstance_Description>
single chemical compound

>  <STRUCTURE_ChemicalName_IUPAC>
1,1,1,2-tetrafluoroethane

>  <STRUCTURE_SMILES>
FCC(F)(F)F

>  <STRUCTURE_Parent_SMILES>
FCC(F)(F)F

>  <STRUCTURE_InChI>
InChI=1/C2H2F4/c3-1-2(4,5)6/h1H2

>  <STRUCTURE_InChIKey>
LVGUZGTVOIAKKC-UHFFFAOYAU

>  <StudyType>
Carcinogenicity

>  <Endpoint>
TD50; Tumor Target Sites

>  <Species>
rat; mouse

>  <TD50_Rat_mg>
29900

>  <TD50_Rat_mmol>
293

>  <ActivityScore_CPDBAS_Rat>
0

>  <TargetSites_Rat_Male>
testes

>  <TargetSites_Rat_Female>
no positive results

>  <ActivityOutcome_CPDBAS_Rat>
active

>  <ActivityScore_CPDBAS_Mouse>
0

>  <TD50_Mouse_Note>
no positive results

>  <TargetSites_Mouse_Male>
no positive results

>  <TargetSites_Mouse_Female>
no positive results

>  <ActivityOutcome_CPDBAS_Mouse>
inactive

>  <ActivityOutcome_CPDBAS_SingleCellCall>
active

>  <Note_CPDBAS>
Rat added v2a

>  <ChemicalPage_URL>
http://potency.berkeley.edu/chempages/1,1,1,2-TETRAFLUOROETHANE.html

$$$$



  6  5  0  0  0  0  0  0  0  0999 V2000
    2.6600   -2.3036    0.0000 F   0  0  0  0  0  0  0  0  0  0  0  0
    0.0000   -2.3036    0.0000 F   0  0  0  0  0  0  0  0  0  0  0  0
    0.6730   -1.1598    0.0000 C   0  0  0  0  0  0  0  0  0  0  0  0
    1.9870   -1.1598    0.0000 C   0  0  0  0  0  0  0  0  0  0  0  0
    0.0000    0.0000    0.0000 F   0  0  0  0  0  0  0  0  0  0  0  0
    2.6600    0.0000    0.0000 F   0  0  0  0  0  0  0  0  0  0  0  0
  1  4  1  0  0  0  0
  2  3  1  0  0  0  0
  3  4  2  0  0  0  0
  3  5  1  0  0  0  0
  4  6  1  0  0  0  0
M  END
>  <DSSTox_RID>
21325

>  <DSSTox_CID>
1325

>  <DSSTox_Generic_SID>
21325

>  <DSSTox_FileID>
1388_CPDBAS_v5d

>  <STRUCTURE_Formula>
C2F4

>  <STRUCTURE_MolecularWeight>
100.015

>  <STRUCTURE_ChemicalType>
defined organic

>  <STRUCTURE_TestedForm_DefinedOrganic>
parent

>  <STRUCTURE_Shown>
tested chemical

>  <TestSubstance_ChemicalName>
Tetrafluoroethylene

>  <TestSubstance_CASRN>
116-14-3

>  <TestSubstance_Description>
single chemical compound

>  <STRUCTURE_ChemicalName_IUPAC>
tetrafluoroethene

>  <STRUCTURE_SMILES>
F/C(F)=C(\F)F

>  <STRUCTURE_Parent_SMILES>
F/C(F)=C(\F)F

>  <STRUCTURE_InChI>
InChI=1/C2F4/c3-1(4)2(5)6

>  <STRUCTURE_InChIKey>
BFKJFAAPBSQJPD-UHFFFAOYAC

>  <StudyType>
Carcinogenicity

>  <Endpoint>
TD50; Tumor Target Sites

>  <Species>
rat; mouse

>  <TD50_Rat_mg>
107

>  <TD50_Rat_mmol>
1.07

>  <ActivityScore_CPDBAS_Rat>
25

>  <TD50_Rat_Note>
TD50 is harmonic mean of more than one positive test

>  <TargetSites_Rat_Male>
kidney; liver

>  <TargetSites_Rat_Female>
hematopoietic system; kidney; liver; vascular system

>  <ActivityOutcome_CPDBAS_Rat>
active

>  <TD50_Mouse_mg>
71.9

>  <TD50_Mouse_mmol>
0.719

>  <ActivityScore_CPDBAS_Mouse>
30

>  <TD50_Mouse_Note>
TD50 is harmonic mean of more than one positive test

>  <TargetSites_Mouse_Male>
hematopoietic system; liver; vascular system

>  <TargetSites_Mouse_Female>
hematopoietic system; liver; vascular system

>  <ActivityOutcome_CPDBAS_Mouse>
active

>  <ActivityOutcome_CPDBAS_SingleCellCall>
active

>  <ActivityOutcome_CPDBAS_MultiCellCall>
active

>  <ActivityOutcome_CPDBAS_MultiCellCall_Details>
multisite active; multisex active; multispecies active

>  <Note_CPDBAS>
Rat added v2a; Mouse added v2a; TD50_Mouse modified v5a

>  <NTP_TechnicalReport>
TR 450

>  <ChemicalPage_URL>
http://potency.berkeley.edu/chempages/TETRAFLUOROETHYLENE.html

$$$$



  8  8  0  0  0  0  0  0  0  0999 V2000
    0.6656   -2.3042    0.0000 C   0  0  0  0  0  0  0  0  0  0  0  0
    0.0000   -1.1544    0.0000 C   0  0  0  0  0  0  0  0  0  0  0  0
    0.6656    0.0000    0.0000 C   0  0  0  0  0  0  0  0  0  0  0  0
    1.9969    0.0000    0.0000 C   0  0  0  0  0  0  0  0  0  0  0  0
    2.6579   -1.1544    0.0000 N   0  0  0  0  0  0  0  0  0  0  0  0
    1.9969   -2.3042    0.0000 O   0  0  0  0  0  0  0  0  0  0  0  0
    3.9892   -1.1544    0.0000 N   0  0  0  0  0  0  0  0  0  0  0  0
    4.6549   -2.3042    0.0000 O   0  0  0  0  0  0  0  0  0  0  0  0
  1  2  1  0  0  0  0
  1  6  1  0  0  0  0
  2  3  1  0  0  0  0
  3  4  1  0  0  0  0
  4  5  1  0  0  0  0
  5  6  1  0  0  0  0
  5  7  1  0  0  0  0
  7  8  2  0  0  0  0
M  END
>  <DSSTox_RID>
21326

>  <DSSTox_CID>
1326

>  <DSSTox_Generic_SID>
21326

>  <DSSTox_FileID>
1389_CPDBAS_v5d

>  <STRUCTURE_Formula>
C4H8N2O2

>  <STRUCTURE_MolecularWeight>
116.1194

>  <STRUCTURE_ChemicalType>
defined organic

>  <STRUCTURE_TestedForm_DefinedOrganic>
parent

>  <STRUCTURE_Shown>
tested chemical

>  <TestSubstance_ChemicalName>
Tetrahydro-2-nitroso-2H-1,2-oxazine

>  <TestSubstance_CASRN>
40548-68-3

>  <TestSubstance_Description>
single chemical compound

>  <STRUCTURE_ChemicalName_IUPAC>
2-nitroso-1,2-oxazinane

>  <STRUCTURE_SMILES>
C1CCCN(O1)N=O

>  <STRUCTURE_Parent_SMILES>
C1CCCN(O1)N=O

>  <STRUCTURE_InChI>
InChI=1/C4H8N2O2/c7-5-6-3-1-2-4-8-6/h1-4H2

>  <STRUCTURE_InChIKey>
PREXGTBZMLDXHV-UHFFFAOYAG

>  <StudyType>
Carcinogenicity

>  <Endpoint>
TD50; Tumor Target Sites

>  <Species>
rat

>  <TD50_Rat_mg>
24.3

>  <TD50_Rat_mmol>
0.209

>  <ActivityScore_CPDBAS_Rat>
33

>  <TargetSites_Rat_BothSexes>
all tumor bearing animals

>  <ActivityOutcome_CPDBAS_Rat>
active

>  <ActivityOutcome_CPDBAS_SingleCellCall>
active

>  <ChemicalPage_URL>
http://potency.berkeley.edu/chempages/TETRAHYDRO-2-NITROSO-2H-1,2-OXAZINE.html

$$$$



 25 27  0  0  1  0  0  0  0  0999 V2000
    4.6072   -2.0131    0.0000 C   0  0  0  0  0  0  0  0  0  0  0  0
    3.4658   -2.6668    0.0000 C   0  0  1  0  0  0  0  0  0  0  0  0
    5.7694   -2.6668    0.0000 C   0  0  0  0  0  0  0  0  0  0  0  0
    5.7694   -3.9950    0.0000 O   0  0  0  0  0  0  0  0  0  0  0  0
    4.6072   -4.6695    0.0000 C   0  0  0  0  0  0  0  0  0  0  0  0
    3.4658   -3.9950    0.0000 C   0  0  2  0  0  0  0  0  0  0  0  0
    4.6072   -0.6745    0.0000 C   0  0  0  0  0  0  0  0  0  0  0  0
    2.3036   -2.0131    0.0000 C   0  0  0  0  0  0  0  0  0  0  0  0
    2.3036   -4.6695    0.0000 C   0  0  0  0  0  0  0  0  0  0  0  0
    1.1622   -2.6668    0.0000 C   0  0  0  0  0  0  0  0  0  0  0  0
    6.9108   -2.0131    0.0000 C   0  0  0  0  0  0  0  0  0  0  0  0
    5.7694    0.0000    0.0000 C   0  0  0  0  0  0  0  0  0  0  0  0
    6.9108   -0.6745    0.0000 C   0  0  0  0  0  0  0  0  0  0  0  0
    1.1622   -3.9950    0.0000 C   0  0  0  0  0  0  0  0  0  0  0  0
    3.4658    0.0000    0.0000 O   0  0  0  0  0  0  0  0  0  0  0  0
    5.2817   -5.8109    0.0000 C   0  0  0  0  0  0  0  0  0  0  0  0
    3.9535   -5.8109    0.0000 C   0  0  0  0  0  0  0  0  0  0  0  0
    0.0000   -2.0131    0.0000 C   0  0  0  0  0  0  0  0  0  0  0  0
    8.0730    0.0000    0.0000 C   0  0  0  0  0  0  0  0  0  0  0  0
    9.2144   -0.6745    0.0000 C   0  0  0  0  0  0  0  0  0  0  0  0
   10.3766   -2.6668    0.0000 C   0  0  0  0  0  0  0  0  0  0  0  0
    9.2144   -2.0131    0.0000 C   0  0  0  0  0  0  0  0  0  0  0  0
   10.3766   -3.9950    0.0000 C   0  0  0  0  0  0  0  0  0  0  0  0
    3.4658   -1.3386    0.0000 H   0  0  0  0  0  0  0  0  0  0  0  0
    3.4658   -5.3232    0.0000 H   0  0  0  0  0  0  0  0  0  0  0  0
  1  2  1  0  0  0  0
  1  3  1  0  0  0  0
  1  7  2  0  0  0  0
  2  6  1  0  0  0  0
  2  8  1  0  0  0  0
  2 24  1  6  0  0  0
  3  4  1  0  0  0  0
  3 11  2  0  0  0  0
  4  5  1  0  0  0  0
  5 16  1  0  0  0  0
  5 17  1  0  0  0  0
  5  6  1  0  0  0  0
  6  9  1  0  0  0  0
  6 25  1  1  0  0  0
  7 12  1  0  0  0  0
  7 15  1  0  0  0  0
  8 10  2  0  0  0  0
  9 14  1  0  0  0  0
 10 14  1  0  0  0  0
 10 18  1  0  0  0  0
 11 13  1  0  0  0  0
 12 13  2  0  0  0  0
 13 19  1  0  0  0  0
 19 20  1  0  0  0  0
 20 22  1  0  0  0  0
 21 22  1  0  0  0  0
 21 23  1  0  0  0  0
M  END
>  <DSSTox_RID>
21327

>  <DSSTox_CID>
1327

>  <DSSTox_Generic_SID>
21327

>  <DSSTox_FileID>
1390_CPDBAS_v5d

>  <STRUCTURE_Formula>
C21H30O2

>  <STRUCTURE_MolecularWeight>
314.4617

>  <STRUCTURE_ChemicalType>
defined organic

>  <STRUCTURE_TestedForm_DefinedOrganic>
parent

>  <STRUCTURE_Shown>
tested chemical

>  <TestSubstance_ChemicalName>
1-trans-delta-9-Tetrahydrocannabinol

>  <TestSubstance_CASRN>
1972-08-3

>  <TestSubstance_Description>
single chemical compound

>  <ChemicalNote>
stereochem

>  <STRUCTURE_ChemicalName_IUPAC>
(6aR,10aR)-6,6,9-trimethyl-3-pentyl-6a,7,8,10a-tetrahydro-6H-benzo[c]chromen-1-ol

>  <STRUCTURE_SMILES>
OC2=C1[C@@](C=C(C)CC3)([H])[C@]3([H])C(C)(C)OC1=CC(CCCCC)=C2

>  <STRUCTURE_Parent_SMILES>
OC2=C1[C@@](C=C(C)CC3)([H])[C@]3([H])C(C)(C)OC1=CC(CCCCC)=C2

>  <STRUCTURE_InChI>
InChI=1/C21H30O2/c1-5-6-7-8-15-12-18(22)20-16-11-14(2)9-10-17(16)21(3,4)23-19(20)13-15/h11-13,16-17,22H,5-10H2,1-4H3/t16-,17-/m1/s1

>  <STRUCTURE_InChIKey>
CYQFCXCEBYINGO-IAGOWNOFBK

>  <StudyType>
Carcinogenicity

>  <Endpoint>
TD50; Tumor Target Sites

>  <Species>
rat; mouse

>  <ActivityOutcome_CPDBAS_Mutagenicity>
inactive

>  <ActivityScore_CPDBAS_Rat>
0

>  <TD50_Rat_Note>
no positive results

>  <TargetSites_Rat_Male>
no positive results

>  <TargetSites_Rat_Female>
no positive results

>  <ActivityOutcome_CPDBAS_Rat>
inactive

>  <ActivityScore_CPDBAS_Mouse>
0

>  <TD50_Mouse_Note>
no positive results

>  <TargetSites_Mouse_Male>
no positive results

>  <TargetSites_Mouse_Female>
no positive results

>  <ActivityOutcome_CPDBAS_Mouse>
inactive

>  <ActivityOutcome_CPDBAS_SingleCellCall>
inactive

>  <ActivityOutcome_CPDBAS_MultiCellCall>
inactive

>  <ActivityOutcome_CPDBAS_MultiCellCall_Details>
multisex inactive; multispecies inactive

>  <NTP_TechnicalReport>
TR 446

>  <ChemicalPage_URL>
http://potency.berkeley.edu/chempages/1-trans-delta9-TETRAHYDROCANNABINOL.html

$$$$



  5  5  0  0  0  0  0  0  0  0999 V2000
    1.0798    0.0000    0.0000 O   0  0  0  0  0  0  0  0  0  0  0  0
    0.0000   -0.7451    0.0000 C   0  0  0  0  0  0  0  0  0  0  0  0
    2.1597   -0.7451    0.0000 C   0  0  0  0  0  0  0  0  0  0  0  0
    0.4298   -2.0323    0.0000 C   0  0  0  0  0  0  0  0  0  0  0  0
    1.7472   -2.0323    0.0000 C   0  0  0  0  0  0  0  0  0  0  0  0
  1  2  1  0  0  0  0
  1  3  1  0  0  0  0
  2  4  1  0  0  0  0
  3  5  1  0  0  0  0
  4  5  1  0  0  0  0
M  END
>  <DSSTox_RID>
21328

>  <DSSTox_CID>
1328

>  <DSSTox_Generic_SID>
21328

>  <DSSTox_FileID>
1391_CPDBAS_v5d

>  <STRUCTURE_Formula>
C4H8O

>  <STRUCTURE_MolecularWeight>
72.1057

>  <STRUCTURE_ChemicalType>
defined organic

>  <STRUCTURE_TestedForm_DefinedOrganic>
parent

>  <STRUCTURE_Shown>
tested chemical

>  <TestSubstance_ChemicalName>
Tetrahydrofuran

>  <TestSubstance_CASRN>
109-99-9

>  <TestSubstance_Description>
single chemical compound

>  <STRUCTURE_ChemicalName_IUPAC>
tetrahydrofuran

>  <STRUCTURE_SMILES>
C1CCCO1

>  <STRUCTURE_Parent_SMILES>
C1CCCO1

>  <STRUCTURE_InChI>
InChI=1/C4H8O/c1-2-4-5-3-1/h1-4H2

>  <STRUCTURE_InChIKey>
WYURNTSHIVDZCO-UHFFFAOYAI

>  <StudyType>
Carcinogenicity

>  <Endpoint>
TD50; Tumor Target Sites

>  <Species>
rat; mouse

>  <ActivityOutcome_CPDBAS_Mutagenicity>
inactive

>  <TD50_Rat_mg>
407

>  <TD50_Rat_mmol>
5.64

>  <ActivityScore_CPDBAS_Rat>
18

>  <TargetSites_Rat_Male>
kidney

>  <TargetSites_Rat_Female>
no positive results

>  <ActivityOutcome_CPDBAS_Rat>
active

>  <TD50_Mouse_mg>
1300

>  <TD50_Mouse_mmol>
18

>  <ActivityScore_CPDBAS_Mouse>
14

>  <TargetSites_Mouse_Male>
no positive results

>  <TargetSites_Mouse_Female>
liver

>  <ActivityOutcome_CPDBAS_Mouse>
active

>  <ActivityOutcome_CPDBAS_SingleCellCall>
active

>  <ActivityOutcome_CPDBAS_MultiCellCall>
active

>  <ActivityOutcome_CPDBAS_MultiCellCall_Details>
multisite active; multisex active; multispecies active

>  <Note_CPDBAS>
Rat added v2a; Mouse added v2a

>  <NTP_TechnicalReport>
TR 475

>  <ChemicalPage_URL>
http://potency.berkeley.edu/chempages/TETRAHYDROFURAN.html

$$$$



 17 18  0  0  1  0  0  0  0  0999 V2000
    4.3950   -3.9933    0.0000 N   0  0  0  0  0  0  0  0  0  0  0  0
    3.2518   -3.3290    0.0000 C   0  0  0  0  0  0  0  0  0  0  0  0
    3.2364   -1.9928    0.0000 N   0  0  0  0  0  0  0  0  0  0  0  0
    4.3950   -1.3285    0.0000 C   0  0  0  0  0  0  0  0  0  0  0  0
    5.5458   -1.9928    0.0000 C   0  0  0  0  0  0  0  0  0  0  0  0
    5.5458   -3.3213    0.0000 C   0  0  0  0  0  0  0  0  0  0  0  0
    4.3950    0.0000    0.0000 O   0  0  0  0  0  0  0  0  0  0  0  0
    2.1009   -3.9933    0.0000 O   0  0  0  0  0  0  0  0  0  0  0  0
    4.3950   -5.3141    0.0000 C   0  0  1  0  0  0  0  0  0  0  0  0
    4.0088   -6.5963    0.0000 C   0  0  1  0  0  0  0  0  0  0  0  0
    2.6880   -6.6272    0.0000 C   0  0  1  0  0  0  0  0  0  0  0  0
    2.2400   -5.3836    0.0000 C   0  0  2  0  0  0  0  0  0  0  0  0
    3.2904   -4.5649    0.0000 O   0  0  0  0  0  0  0  0  0  0  0  0
    0.9655   -4.9974    0.0000 C   0  0  0  0  0  0  0  0  0  0  0  0
    0.0000   -5.9166    0.0000 O   0  0  0  0  0  0  0  0  0  0  0  0
    1.9310   -7.7240    0.0000 O   0  0  0  0  0  0  0  0  0  0  0  0
    4.8275   -7.6468    0.0000 O   0  0  0  0  0  0  0  0  0  0  0  0
  1  2  1  0  0  0  0
  1  6  1  0  0  0  0
  9  1  1  1  0  0  0
  2  3  1  0  0  0  0
  2  8  2  0  0  0  0
  3  4  1  0  0  0  0
  4  5  1  0  0  0  0
  4  7  2  0  0  0  0
  5  6  1  0  0  0  0
  9 10  1  0  0  0  0
  9 13  1  0  0  0  0
 10 11  1  0  0  0  0
 10 17  1  6  0  0  0
 11 12  1  0  0  0  0
 11 16  1  6  0  0  0
 12 13  1  0  0  0  0
 12 14  1  1  0  0  0
 14 15  1  0  0  0  0
M  END
>  <DSSTox_RID>
21329

>  <DSSTox_CID>
1329

>  <DSSTox_Generic_SID>
21329

>  <DSSTox_FileID>
1392_CPDBAS_v5d

>  <STRUCTURE_Formula>
C9H14N2O6

>  <STRUCTURE_MolecularWeight>
246.2194

>  <STRUCTURE_ChemicalType>
defined organic

>  <STRUCTURE_TestedForm_DefinedOrganic>
parent

>  <STRUCTURE_Shown>
tested chemical

>  <TestSubstance_ChemicalName>
3,4,5,6-Tetrahydrouridine

>  <TestSubstance_CASRN>
18771-50-1

>  <TestSubstance_Description>
single chemical compound

>  <ChemicalNote>
stereochem

>  <STRUCTURE_ChemicalName_IUPAC>
uridine

>  <STRUCTURE_SMILES>
O=C2NC(=O)CCN2[C@@H]1O[C@H](CO)[C@@H](O)[C@H]1O

>  <STRUCTURE_Parent_SMILES>
O=C2NC(=O)CCN2[C@@H]1O[C@H](CO)[C@@H](O)[C@H]1O

>  <STRUCTURE_InChI>
InChI=1/C9H14N2O6/c12-3-4-6(14)7(15)8(17-4)11-2-1-5(13)10-9(11)16/h4,6-8,12,14-15H,1-3H2,(H,10,13,16)/t4-,6-,7-,8-/m1/s1/f/h10H

>  <STRUCTURE_InChIKey>
ZPTBLXKRQACLCR-XPECWITRDN

>  <StudyType>
Carcinogenicity

>  <Endpoint>
TD50; Tumor Target Sites

>  <Species>
rat

>  <ActivityScore_CPDBAS_Rat>
0

>  <TD50_Rat_Note>
no positive results

>  <TargetSites_Rat_Male>
no positive results

>  <ActivityOutcome_CPDBAS_Rat>
inactive

>  <ActivityOutcome_CPDBAS_SingleCellCall>
inactive

>  <ChemicalPage_URL>
http://potency.berkeley.edu/chempages/3,4,5,6-TETRAHYDROURIDINE.html

$$$$



 12 11  0  0  0  0  0  0  0  0999 V2000
    2.3008   -3.9867    0.0000 S   0  0  0  0  0  0  0  0  0  0  0  0
    2.3008   -2.6601    0.0000 C   0  0  0  0  0  0  0  0  0  0  0  0
    1.1539   -1.9899    0.0000 N   0  0  0  0  0  0  0  0  0  0  0  0
    1.1539   -0.6633    0.0000 C   0  0  0  0  0  0  0  0  0  0  0  0
    0.0000   -2.6601    0.0000 C   0  0  0  0  0  0  0  0  0  0  0  0
    3.4547   -1.9899    0.0000 S   0  0  0  0  0  0  0  0  0  0  0  0
    4.6085   -2.6601    0.0000 S   0  0  0  0  0  0  0  0  0  0  0  0
    5.7555   -1.9899    0.0000 C   0  0  0  0  0  0  0  0  0  0  0  0
    6.9094   -2.6601    0.0000 S   0  0  0  0  0  0  0  0  0  0  0  0
    5.7555   -0.6633    0.0000 N   0  0  0  0  0  0  0  0  0  0  0  0
    4.6085    0.0000    0.0000 C   0  0  0  0  0  0  0  0  0  0  0  0
    6.9094    0.0000    0.0000 C   0  0  0  0  0  0  0  0  0  0  0  0
  1  2  2  0  0  0  0
  2  3  1  0  0  0  0
  2  6  1  0  0  0  0
  3  4  1  0  0  0  0
  3  5  1  0  0  0  0
  6  7  1  0  0  0  0
  7  8  1  0  0  0  0
  8  9  2  0  0  0  0
  8 10  1  0  0  0  0
 10 11  1  0  0  0  0
 10 12  1  0  0  0  0
M  END
>  <DSSTox_RID>
21332

>  <DSSTox_CID>
1332

>  <DSSTox_Generic_SID>
21332

>  <DSSTox_FileID>
1395_CPDBAS_v5d

>  <STRUCTURE_Formula>
C6H12N2S4

>  <STRUCTURE_MolecularWeight>
240.4329

>  <STRUCTURE_ChemicalType>
defined organic

>  <STRUCTURE_TestedForm_DefinedOrganic>
parent

>  <STRUCTURE_Shown>
tested chemical

>  <TestSubstance_ChemicalName>
Tetramethylthiuram disulfide

>  <TestSubstance_CASRN>
137-26-8

>  <TestSubstance_Description>
single chemical compound

>  <STRUCTURE_ChemicalName_IUPAC>
[dithiobis(carbonothioylnitrilo)]tetramethane

>  <STRUCTURE_SMILES>
S=C(N(C)C)SSC(=S)N(C)C

>  <STRUCTURE_Parent_SMILES>
S=C(N(C)C)SSC(=S)N(C)C

>  <STRUCTURE_InChI>
InChI=1/C6H12N2S4/c1-7(2)5(9)11-12-6(10)8(3)4/h1-4H3

>  <STRUCTURE_InChIKey>
KUAZQDVKQLNFPE-UHFFFAOYAK

>  <StudyType>
Carcinogenicity

>  <Endpoint>
TD50; Tumor Target Sites

>  <Species>
rat; mouse

>  <ActivityOutcome_CPDBAS_Mutagenicity>
active

>  <ActivityScore_CPDBAS_Rat>
0

>  <TD50_Rat_Note>
no positive results

>  <TargetSites_Rat_Male>
no positive results

>  <TargetSites_Rat_Female>
no positive results

>  <ActivityOutcome_CPDBAS_Rat>
inactive

>  <ActivityScore_CPDBAS_Mouse>
0

>  <TD50_Mouse_Note>
no positive results

>  <TargetSites_Mouse_Male>
no positive results

>  <TargetSites_Mouse_Female>
no positive results

>  <ActivityOutcome_CPDBAS_Mouse>
inactive

>  <ActivityOutcome_CPDBAS_SingleCellCall>
inactive

>  <ActivityOutcome_CPDBAS_MultiCellCall>
inactive

>  <ActivityOutcome_CPDBAS_MultiCellCall_Details>
multisex inactive; multispecies inactive

>  <Note_CPDBAS>
Mutagenicity_SAL_CPDB added v3a

>  <ChemicalPage_URL>
http://potency.berkeley.edu/chempages/TETRAMETHYLTHIURAM%20DISULFIDE.html

$$$$



 11 10  0  0  0  0  0  0  0  0999 V2000
    3.3279   -3.4536    0.0000 S   0  0  0  0  0  0  0  0  0  0  0  0
    3.9923   -2.3044    0.0000 C   0  0  0  0  0  0  0  0  0  0  0  0
    5.3211   -2.3044    0.0000 N   0  0  0  0  0  0  0  0  0  0  0  0
    5.9855   -1.1492    0.0000 C   0  0  0  0  0  0  0  0  0  0  0  0
    5.9855   -3.4536    0.0000 C   0  0  0  0  0  0  0  0  0  0  0  0
    3.3279   -1.1492    0.0000 S   0  0  0  0  0  0  0  0  0  0  0  0
    1.9932   -1.1492    0.0000 C   0  0  0  0  0  0  0  0  0  0  0  0
    1.3288    0.0000    0.0000 S   0  0  0  0  0  0  0  0  0  0  0  0
    1.3288   -2.3044    0.0000 N   0  0  0  0  0  0  0  0  0  0  0  0
    1.9932   -3.4536    0.0000 C   0  0  0  0  0  0  0  0  0  0  0  0
    0.0000   -2.3044    0.0000 C   0  0  0  0  0  0  0  0  0  0  0  0
  1  2  2  0  0  0  0
  2  3  1  0  0  0  0
  2  6  1  0  0  0  0
  3  4  1  0  0  0  0
  3  5  1  0  0  0  0
  6  7  1  0  0  0  0
  7  8  2  0  0  0  0
  7  9  1  0  0  0  0
  9 10  1  0  0  0  0
  9 11  1  0  0  0  0
M  END
>  <DSSTox_RID>
21333

>  <DSSTox_CID>
1333

>  <DSSTox_Generic_SID>
21333

>  <DSSTox_FileID>
1396_CPDBAS_v5d

>  <STRUCTURE_Formula>
C6H12N2S3

>  <STRUCTURE_MolecularWeight>
208.3679

>  <STRUCTURE_ChemicalType>
defined organic

>  <STRUCTURE_TestedForm_DefinedOrganic>
parent

>  <STRUCTURE_Shown>
tested chemical

>  <TestSubstance_ChemicalName>
Tetramethylthiuram monosulfide

>  <TestSubstance_CASRN>
97-74-5

>  <TestSubstance_Description>
single chemical compound

>  <STRUCTURE_ChemicalName_IUPAC>
N,N,N',N'-tetramethyldicarbonotrithioic diamide

>  <STRUCTURE_SMILES>
S=C(N(C)C)SC(=S)N(C)C

>  <STRUCTURE_Parent_SMILES>
S=C(N(C)C)SC(=S)N(C)C

>  <STRUCTURE_InChI>
InChI=1/C6H12N2S3/c1-7(2)5(9)11-6(10)8(3)4/h1-4H3

>  <STRUCTURE_InChIKey>
REQPQFUJGGOFQL-UHFFFAOYAF

>  <StudyType>
Carcinogenicity

>  <Endpoint>
TD50; Tumor Target Sites

>  <Species>
mouse

>  <ActivityScore_CPDBAS_Mouse>
0

>  <TD50_Mouse_Note>
no positive results

>  <TargetSites_Mouse_Male>
no positive results

>  <TargetSites_Mouse_Female>
no positive results

>  <ActivityOutcome_CPDBAS_Mouse>
inactive

>  <ActivityOutcome_CPDBAS_SingleCellCall>
inactive

>  <ActivityOutcome_CPDBAS_MultiCellCall>
inactive

>  <ActivityOutcome_CPDBAS_MultiCellCall_Details>
multisex inactive

>  <ChemicalPage_URL>
http://potency.berkeley.edu/chempages/TETRAMETHYLTHIURAM%20MONOSULFIDE.html

$$$$



 13 12  0  0  0  0  0  0  0  0999 V2000
    0.8414    0.0000    0.0000 O   0  0  0  0  0  0  0  0  0  0  0  0
    1.9939   -0.6660    0.0000 N   0  3  0  0  0  0  0  0  0  0  0  0
    1.9939   -1.9939    0.0000 C   0  0  0  0  0  0  0  0  0  0  0  0
    3.3218   -1.9939    0.0000 N   0  3  0  0  0  0  0  0  0  0  0  0
    3.9878   -3.1463    0.0000 O   0  0  0  0  0  0  0  0  0  0  0  0
    3.9878   -0.8414    0.0000 O   0  5  0  0  0  0  0  0  0  0  0  0
    1.9939   -3.3218    0.0000 N   0  3  0  0  0  0  0  0  0  0  0  0
    3.1463   -3.9878    0.0000 O   0  0  0  0  0  0  0  0  0  0  0  0
    0.8414   -3.9878    0.0000 O   0  5  0  0  0  0  0  0  0  0  0  0
    0.6660   -1.9939    0.0000 N   0  3  0  0  0  0  0  0  0  0  0  0
    0.0000   -3.1463    0.0000 O   0  0  0  0  0  0  0  0  0  0  0  0
    0.0000   -0.8414    0.0000 O   0  5  0  0  0  0  0  0  0  0  0  0
    3.1463    0.0000    0.0000 O   0  5  0  0  0  0  0  0  0  0  0  0
  1  2  2  0  0  0  0
  2  3  1  0  0  0  0
  2 13  1  0  0  0  0
  3  4  1  0  0  0  0
  3  7  1  0  0  0  0
  3 10  1  0  0  0  0
  4  5  2  0  0  0  0
  4  6  1  0  0  0  0
  7  8  2  0  0  0  0
  7  9  1  0  0  0  0
 10 11  2  0  0  0  0
 10 12  1  0  0  0  0
M  END
>  <DSSTox_RID>
21334

>  <DSSTox_CID>
1334

>  <DSSTox_Generic_SID>
21334

>  <DSSTox_FileID>
1397_CPDBAS_v5d

>  <STRUCTURE_Formula>
CN4O8

>  <STRUCTURE_MolecularWeight>
196.0327

>  <STRUCTURE_ChemicalType>
defined organic

>  <STRUCTURE_TestedForm_DefinedOrganic>
parent

>  <STRUCTURE_Shown>
tested chemical

>  <TestSubstance_ChemicalName>
Tetranitromethane

>  <TestSubstance_CASRN>
509-14-8

>  <TestSubstance_Description>
single chemical compound

>  <STRUCTURE_ChemicalName_IUPAC>
tetranitromethane

>  <STRUCTURE_SMILES>
O=[N+](C([N+](=O)[O-])([N+](=O)[O-])[N+](=O)[O-])[O-]

>  <STRUCTURE_Parent_SMILES>
O=[N+](C([N+](=O)[O-])([N+](=O)[O-])[N+](=O)[O-])[O-]

>  <STRUCTURE_InChI>
InChI=1/CN4O8/c6-2(7)1(3(8)9,4(10)11)5(12)13

>  <STRUCTURE_InChIKey>
NYTOUQBROMCLBJ-UHFFFAOYAA

>  <StudyType>
Carcinogenicity

>  <Endpoint>
TD50; Tumor Target Sites

>  <Species>
rat; mouse

>  <ActivityOutcome_CPDBAS_Mutagenicity>
active

>  <TD50_Rat_mg>
0.447

>  <TD50_Rat_mmol>
0.00228

>  <ActivityScore_CPDBAS_Rat>
53

>  <TD50_Rat_Note>
TD50 is harmonic mean of more than one positive test

>  <TargetSites_Rat_Male>
lung

>  <TargetSites_Rat_Female>
lung

>  <ActivityOutcome_CPDBAS_Rat>
active

>  <TD50_Mouse_mg>
1.19

>  <TD50_Mouse_mmol>
0.00607

>  <ActivityScore_CPDBAS_Mouse>
53

>  <TD50_Mouse_Note>
TD50 is harmonic mean of more than one positive test

>  <TargetSites_Mouse_Male>
lung

>  <TargetSites_Mouse_Female>
lung

>  <ActivityOutcome_CPDBAS_Mouse>
active

>  <ActivityOutcome_CPDBAS_SingleCellCall>
active

>  <ActivityOutcome_CPDBAS_MultiCellCall>
active

>  <ActivityOutcome_CPDBAS_MultiCellCall_Details>
multisex active; multispecies active

>  <NTP_TechnicalReport>
TR 386

>  <ChemicalPage_URL>
http://potency.berkeley.edu/chempages/TETRANITROMETHANE.html

$$$$



 18 19  0  0  0  0  0  0  0  0999 V2000
    0.0000   -3.5462    0.0000 S   0  0  0  0  0  0  0  0  0  0  0  0
    0.6684   -2.3903    0.0000 C   0  0  0  0  0  0  0  0  0  0  0  0
    1.9657   -2.6734    0.0000 C   0  0  0  0  0  0  0  0  0  0  0  0
    0.8885   -4.5369    0.0000 C   0  0  0  0  0  0  0  0  0  0  0  0
    2.1073   -3.9944    0.0000 C   0  0  0  0  0  0  0  0  0  0  0  0
    3.2553   -4.6549    0.0000 C   0  0  0  0  0  0  0  0  0  0  0  0
    4.4111   -3.9944    0.0000 N   0  0  0  0  0  0  0  0  0  0  0  0
    5.5591   -4.6549    0.0000 C   0  0  0  0  0  0  0  0  0  0  0  0
    6.7150   -3.9944    0.0000 N   0  0  0  0  0  0  0  0  0  0  0  0
    7.8630   -4.6549    0.0000 C   0  0  0  0  0  0  0  0  0  0  0  0
    7.8630   -5.9837    0.0000 C   0  0  0  0  0  0  0  0  0  0  0  0
    5.5591   -5.9837    0.0000 C   0  0  0  0  0  0  0  0  0  0  0  0
    6.7150   -6.6521    0.0000 C   0  0  0  0  0  0  0  0  0  0  0  0
    4.4111   -2.6655    0.0000 C   0  0  0  0  0  0  0  0  0  0  0  0
    3.2553   -1.9972    0.0000 C   0  0  0  0  0  0  0  0  0  0  0  0
    3.2553   -0.6684    0.0000 N   0  0  0  0  0  0  0  0  0  0  0  0
    2.1073    0.0000    0.0000 C   0  0  0  0  0  0  0  0  0  0  0  0
    4.4111    0.0000    0.0000 C   0  0  0  0  0  0  0  0  0  0  0  0
  1  2  1  0  0  0  0
  1  4  1  0  0  0  0
  2  3  2  0  0  0  0
  3  5  1  0  0  0  0
  4  5  2  0  0  0  0
  5  6  1  0  0  0  0
  6  7  1  0  0  0  0
  7  8  1  0  0  0  0
  7 14  1  0  0  0  0
  8  9  2  0  0  0  0
  8 12  1  0  0  0  0
  9 10  1  0  0  0  0
 10 11  2  0  0  0  0
 11 13  1  0  0  0  0
 12 13  2  0  0  0  0
 14 15  1  0  0  0  0
 15 16  1  0  0  0  0
 16 17  1  0  0  0  0
 16 18  1  0  0  0  0
M  END
>  <DSSTox_RID>
21335

>  <DSSTox_CID>
1335

>  <DSSTox_Generic_SID>
21335

>  <DSSTox_FileID>
1398_CPDBAS_v5d

>  <STRUCTURE_Formula>
C14H19N3S

>  <STRUCTURE_MolecularWeight>
261.3842

>  <STRUCTURE_ChemicalType>
defined organic

>  <STRUCTURE_TestedForm_DefinedOrganic>
parent

>  <STRUCTURE_Shown>
tested chemical

>  <TestSubstance_ChemicalName>
Thenyldiamine

>  <TestSubstance_CASRN>
91-79-2

>  <TestSubstance_Description>
single chemical compound

>  <STRUCTURE_ChemicalName_IUPAC>
N,N-dimethyl-N'-pyridin-2-yl-N'-(3-thienylmethyl)ethane-1,2-diamine

>  <STRUCTURE_SMILES>
S1C=CC(=C1)CN(C2=NC=CC=C2)CCN(C)C

>  <STRUCTURE_Parent_SMILES>
S1C=CC(=C1)CN(C2=NC=CC=C2)CCN(C)C

>  <STRUCTURE_InChI>
InChI=1/C14H19N3S/c1-16(2)8-9-17(11-13-6-10-18-12-13)14-5-3-4-7-15-14/h3-7,10,12H,8-9,11H2,1-2H3

>  <STRUCTURE_InChIKey>
RCGYDFVCAAKKNG-UHFFFAOYAI

>  <StudyType>
Carcinogenicity

>  <Endpoint>
TD50; Tumor Target Sites

>  <Species>
rat

>  <ActivityScore_CPDBAS_Rat>
0

>  <TD50_Rat_Note>
no positive results

>  <TargetSites_Rat_Male>
no positive results

>  <TargetSites_Rat_Female>
no positive results

>  <ActivityOutcome_CPDBAS_Rat>
inactive

>  <ActivityOutcome_CPDBAS_SingleCellCall>
inactive

>  <ActivityOutcome_CPDBAS_MultiCellCall>
inactive

>  <ActivityOutcome_CPDBAS_MultiCellCall_Details>
multisex inactive

>  <ChemicalPage_URL>
http://potency.berkeley.edu/chempages/THENYLDIAMINE.html

$$$$



 13 14  0  0  0  0  0  0  0  0999 V2000
    2.3264   -3.9944    0.0000 N   0  0  0  0  0  0  0  0  0  0  0  0
    3.4677   -3.3250    0.0000 C   0  0  0  0  0  0  0  0  0  0  0  0
    1.1687   -2.0082    0.0000 N   0  0  0  0  0  0  0  0  0  0  0  0
    1.1687   -3.3250    0.0000 C   0  0  0  0  0  0  0  0  0  0  0  0
    3.4677   -2.0082    0.0000 C   0  0  0  0  0  0  0  0  0  0  0  0
    2.3264   -1.3333    0.0000 C   0  0  0  0  0  0  0  0  0  0  0  0
    4.7186   -3.7420    0.0000 N   0  0  0  0  0  0  0  0  0  0  0  0
    4.7186   -1.5912    0.0000 N   0  0  0  0  0  0  0  0  0  0  0  0
    5.4868   -2.6501    0.0000 C   0  0  0  0  0  0  0  0  0  0  0  0
    0.0000   -4.0108    0.0000 O   0  0  0  0  0  0  0  0  0  0  0  0
    2.3264    0.0000    0.0000 O   0  0  0  0  0  0  0  0  0  0  0  0
    2.3264   -5.3277    0.0000 C   0  0  0  0  0  0  0  0  0  0  0  0
    0.0000   -1.3168    0.0000 C   0  0  0  0  0  0  0  0  0  0  0  0
  1  2  1  0  0  0  0
  1  4  1  0  0  0  0
  1 12  1  0  0  0  0
  2  5  2  0  0  0  0
  2  7  1  0  0  0  0
  3  4  1  0  0  0  0
  3  6  1  0  0  0  0
  3 13  1  0  0  0  0
  4 10  2  0  0  0  0
  5  8  1  0  0  0  0
  5  6  1  0  0  0  0
  6 11  2  0  0  0  0
  7  9  2  0  0  0  0
  8  9  1  0  0  0  0
M  END
>  <DSSTox_RID>
21336

>  <DSSTox_CID>
1336

>  <DSSTox_Generic_SID>
21336

>  <DSSTox_FileID>
1399_CPDBAS_v5d

>  <STRUCTURE_Formula>
C7H8N4O2

>  <STRUCTURE_MolecularWeight>
180.164

>  <STRUCTURE_ChemicalType>
defined organic

>  <STRUCTURE_TestedForm_DefinedOrganic>
parent

>  <STRUCTURE_Shown>
tested chemical

>  <TestSubstance_ChemicalName>
Theophylline

>  <TestSubstance_CASRN>
58-55-9

>  <TestSubstance_Description>
single chemical compound

>  <ChemicalNote>
tautomers

>  <STRUCTURE_ChemicalName_IUPAC>
1,3-dimethyl-3,7-dihydro-1H-purine-2,6-dione

>  <STRUCTURE_SMILES>
O=C2C=1/N=C\NC=1N(C)C(=O)N2C

>  <STRUCTURE_Parent_SMILES>
O=C2C=1/N=C\NC=1N(C)C(=O)N2C

>  <STRUCTURE_InChI>
InChI=1/C7H8N4O2/c1-10-5-4(8-3-9-5)6(12)11(2)7(10)13/h3H,1-2H3,(H,8,9)/f/h8H

>  <STRUCTURE_InChIKey>
ZFXYFBGIUFBOJW-FZOZFQFYCY

>  <StudyType>
Carcinogenicity

>  <Endpoint>
TD50; Tumor Target Sites

>  <Species>
rat; mouse

>  <ActivityOutcome_CPDBAS_Mutagenicity>
inactive

>  <ActivityScore_CPDBAS_Rat>
0

>  <TD50_Rat_Note>
no positive results

>  <TargetSites_Rat_Male>
no positive results

>  <TargetSites_Rat_Female>
no positive results

>  <ActivityOutcome_CPDBAS_Rat>
inactive

>  <ActivityScore_CPDBAS_Mouse>
0

>  <TD50_Mouse_Note>
no positive results

>  <TargetSites_Mouse_Male>
no positive results

>  <TargetSites_Mouse_Female>
no positive results

>  <ActivityOutcome_CPDBAS_Mouse>
inactive

>  <ActivityOutcome_CPDBAS_SingleCellCall>
inactive

>  <ActivityOutcome_CPDBAS_MultiCellCall>
inactive

>  <ActivityOutcome_CPDBAS_MultiCellCall_Details>
multisex inactive; multispecies inactive

>  <Note_CPDBAS>
Rat added v2a; Mouse added v2a

>  <NTP_TechnicalReport>
TR 473

>  <ChemicalPage_URL>
http://potency.berkeley.edu/chempages/THEOPHYLLINE.html

$$$$



 14 16  0  0  0  0  0  0  0  0999 V2000
    4.1589   -0.2551    0.0000 N   0  0  0  0  0  0  0  0  0  0  0  0
    3.3781   -1.3296    0.0000 C   0  0  0  0  0  0  0  0  0  0  0  0
    4.1589   -2.4041    0.0000 N   0  0  0  0  0  0  0  0  0  0  0  0
    5.4266   -1.9944    0.0000 C   0  0  0  0  0  0  0  0  0  0  0  0
    5.4266   -0.6648    0.0000 C   0  0  0  0  0  0  0  0  0  0  0  0
    6.5784    0.0000    0.0000 C   0  0  0  0  0  0  0  0  0  0  0  0
    7.7302   -0.6648    0.0000 C   0  0  0  0  0  0  0  0  0  0  0  0
    7.7302   -1.9944    0.0000 C   0  0  0  0  0  0  0  0  0  0  0  0
    6.5784   -2.6592    0.0000 C   0  0  0  0  0  0  0  0  0  0  0  0
    2.0485   -1.3296    0.0000 C   0  0  0  0  0  0  0  0  0  0  0  0
    1.2678   -2.4041    0.0000 C   0  0  0  0  0  0  0  0  0  0  0  0
    0.0000   -1.9944    0.0000 S   0  0  0  0  0  0  0  0  0  0  0  0
    0.0000   -0.6648    0.0000 C   0  0  0  0  0  0  0  0  0  0  0  0
    1.2678   -0.2551    0.0000 N   0  0  0  0  0  0  0  0  0  0  0  0
  1  2  1  0  0  0  0
  1  5  1  0  0  0  0
  2  3  2  0  0  0  0
  2 10  1  0  0  0  0
  3  4  1  0  0  0  0
  4  5  2  0  0  0  0
  4  9  1  0  0  0  0
  5  6  1  0  0  0  0
  6  7  2  0  0  0  0
  7  8  1  0  0  0  0
  8  9  2  0  0  0  0
 10 11  2  0  0  0  0
 10 14  1  0  0  0  0
 11 12  1  0  0  0  0
 12 13  1  0  0  0  0
 13 14  2  0  0  0  0
M  END
>  <DSSTox_RID>
21337

>  <DSSTox_CID>
1337

>  <DSSTox_Generic_SID>
21337

>  <DSSTox_FileID>
1400_CPDBAS_v5d

>  <STRUCTURE_Formula>
C10H7N3S

>  <STRUCTURE_MolecularWeight>
201.2477

>  <STRUCTURE_ChemicalType>
defined organic

>  <STRUCTURE_TestedForm_DefinedOrganic>
parent

>  <STRUCTURE_Shown>
tested chemical

>  <TestSubstance_ChemicalName>
Thiabendazole

>  <TestSubstance_CASRN>
148-79-8

>  <TestSubstance_Description>
single chemical compound

>  <STRUCTURE_ChemicalName_IUPAC>
2-(1,3-thiazol-4-yl)-1H-benzimidazole

>  <STRUCTURE_SMILES>
N1C(=NC2=C1C=CC=C2)C3=CSC=N3

>  <STRUCTURE_Parent_SMILES>
N1C(=NC2=C1C=CC=C2)C3=CSC=N3

>  <STRUCTURE_InChI>
InChI=1/C10H7N3S/c1-2-4-8-7(3-1)12-10(13-8)9-5-14-6-11-9/h1-6H,(H,12,13)/f/h12H

>  <STRUCTURE_InChIKey>
WJCNZQLZVWNLKY-XWKXFZRBCN

>  <StudyType>
Carcinogenicity

>  <Endpoint>
TD50; Tumor Target Sites

>  <Species>
rat; mouse

>  <ActivityOutcome_CPDBAS_Mutagenicity>
active

>  <ActivityScore_CPDBAS_Rat>
0

>  <TD50_Rat_Note>
no positive results

>  <TargetSites_Rat_Male>
no positive results

>  <TargetSites_Rat_Female>
no positive results

>  <ActivityOutcome_CPDBAS_Rat>
inactive

>  <ActivityScore_CPDBAS_Mouse>
0

>  <TD50_Mouse_Note>
no positive results

>  <TargetSites_Mouse_Male>
no positive results

>  <TargetSites_Mouse_Female>
no positive results

>  <ActivityOutcome_CPDBAS_Mouse>
inactive

>  <ActivityOutcome_CPDBAS_SingleCellCall>
inactive

>  <ActivityOutcome_CPDBAS_MultiCellCall>
inactive

>  <ActivityOutcome_CPDBAS_MultiCellCall_Details>
multisex inactive; multispecies inactive

>  <Note_CPDBAS>
TD50 TargetSites_Mouse modified v3a; TargetSites_Mouse_Female modified v5a

>  <ChemicalPage_URL>
http://potency.berkeley.edu/chempages/THIABENDAZOLE.html

$$$$



 21 21  0  0  1  0  0  0  0  0999 V2000
    4.5891   -1.9783    0.0000 C   0  0  0  0  0  0  0  0  0  0  0  0
    4.5891   -3.3355    0.0000 C   0  0  0  0  0  0  0  0  0  0  0  0
    3.4505   -1.3227    0.0000 C   0  0  0  0  0  0  0  0  0  0  0  0
    3.4505   -3.9911    0.0000 C   0  0  0  0  0  0  0  0  0  0  0  0
    2.3003   -1.9783    0.0000 C   0  0  0  0  0  0  0  0  0  0  0  0
    2.3003   -3.3355    0.0000 C   0  0  0  0  0  0  0  0  0  0  0  0
    1.1387   -3.9911    0.0000 S   0  0  0  0  0  0  0  0  0  0  0  0
    0.0000   -3.3355    0.0000 C   0  0  0  0  0  0  0  0  0  0  0  0
    5.7508   -1.3227    0.0000 C   0  0  2  0  0  0  0  0  0  0  0  0
    6.8895   -2.0013    0.0000 C   0  0  1  0  0  0  0  0  0  0  0  0
    6.8895   -3.3355    0.0000 C   0  0  0  0  0  0  0  0  0  0  0  0
    8.0511   -1.3227    0.0000 N   0  0  0  0  0  0  0  0  0  0  0  0
    9.2013   -2.0013    0.0000 C   0  0  0  0  0  0  0  0  0  0  0  0
    8.0511   -3.9911    0.0000 O   0  0  0  0  0  0  0  0  0  0  0  0
    9.2013   -3.3355    0.0000 O   0  0  0  0  0  0  0  0  0  0  0  0
   10.3629   -1.3227    0.0000 C   0  0  0  0  0  0  0  0  0  0  0  0
   11.5016   -2.0013    0.0000 Cl  0  0  0  0  0  0  0  0  0  0  0  0
   10.3629    0.0000    0.0000 Cl  0  0  0  0  0  0  0  0  0  0  0  0
    5.7508    0.0000    0.0000 O   0  0  0  0  0  0  0  0  0  0  0  0
    1.7942   -5.1297    0.0000 O   0  0  0  0  0  0  0  0  0  0  0  0
    0.4716   -5.1297    0.0000 O   0  0  0  0  0  0  0  0  0  0  0  0
  1  3  2  0  0  0  0
  1  9  1  0  0  0  0
  1  2  1  0  0  0  0
  2  4  2  0  0  0  0
  3  5  1  0  0  0  0
  4  6  1  0  0  0  0
  5  6  2  0  0  0  0
  6  7  1  0  0  0  0
  7  8  1  0  0  0  0
  7 20  2  0  0  0  0
  7 21  2  0  0  0  0
  9 10  1  0  0  0  0
  9 19  1  1  0  0  0
 10 12  1  0  0  0  0
 10 11  1  6  0  0  0
 11 14  1  0  0  0  0
 12 13  1  0  0  0  0
 13 15  2  0  0  0  0
 13 16  1  0  0  0  0
 16 17  1  0  0  0  0
 16 18  1  0  0  0  0
M  END
>  <DSSTox_RID>
21338

>  <DSSTox_CID>
1338

>  <DSSTox_Generic_SID>
21338

>  <DSSTox_FileID>
1401_CPDBAS_v5d

>  <STRUCTURE_Formula>
C12H15Cl2NO5S

>  <STRUCTURE_MolecularWeight>
356.2222

>  <STRUCTURE_ChemicalType>
defined organic

>  <STRUCTURE_TestedForm_DefinedOrganic>
parent

>  <STRUCTURE_Shown>
tested chemical

>  <TestSubstance_ChemicalName>
Thiamphenicol

>  <TestSubstance_CASRN>
15318-45-3

>  <TestSubstance_Description>
single chemical compound

>  <ChemicalNote>
stereochem

>  <STRUCTURE_ChemicalName_IUPAC>
2,2-dichloro-N-{(1R,2R)-2-hydroxy-1-(hydroxymethyl)-2-[4-(methylsulfonyl)phenyl]ethyl}acetamide

>  <STRUCTURE_SMILES>
OC[C@@H](NC(C(Cl)Cl)=O)[C@H](O)C1=CC=C(S(=O)(C)=O)C=C1

>  <STRUCTURE_Parent_SMILES>
OC[C@@H](NC(C(Cl)Cl)=O)[C@H](O)C1=CC=C(S(=O)(C)=O)C=C1

>  <STRUCTURE_InChI>
InChI=1/C12H15Cl2NO5S/c1-21(19,20)8-4-2-7(3-5-8)10(17)9(6-16)15-12(18)11(13)14/h2-5,9-11,16-17H,6H2,1H3,(H,15,18)/t9-,10-/m1/s1/f/h15H

>  <STRUCTURE_InChIKey>
OTVAEFIXJLOWRX-VIFFNPKKDD

>  <StudyType>
Carcinogenicity

>  <Endpoint>
TD50; Tumor Target Sites

>  <Species>
rat

>  <ActivityScore_CPDBAS_Rat>
0

>  <TD50_Rat_Note>
no positive results

>  <TargetSites_Rat_Male>
no positive results

>  <TargetSites_Rat_Female>
no positive results

>  <ActivityOutcome_CPDBAS_Rat>
inactive

>  <ActivityOutcome_CPDBAS_SingleCellCall>
inactive

>  <ActivityOutcome_CPDBAS_MultiCellCall>
inactive

>  <ActivityOutcome_CPDBAS_MultiCellCall_Details>
multisex inactive

>  <Note_CPDBAS>
Rat added v3a; chemical added v3a

>  <ChemicalPage_URL>
http://potency.berkeley.edu/chempages/THIAMPHENICOL.html

$$$$



 11 13  0  0  0  0  0  0  0  0999 V2000
    0.0000   -2.4817    0.0000 S   0  0  0  0  0  0  0  0  0  0  0  0
    1.3302   -2.4817    0.0000 P   0  0  0  0  0  0  0  0  0  0  0  0
    1.3302   -1.1515    0.0000 N   0  0  0  0  0  0  0  0  0  0  0  0
    0.6651    0.0000    0.0000 C   0  0  0  0  0  0  0  0  0  0  0  0
    1.9953    0.0000    0.0000 C   0  0  0  0  0  0  0  0  0  0  0  0
    2.6604   -2.4817    0.0000 N   0  0  0  0  0  0  0  0  0  0  0  0
    3.8119   -1.8166    0.0000 C   0  0  0  0  0  0  0  0  0  0  0  0
    3.8119   -3.1468    0.0000 C   0  0  0  0  0  0  0  0  0  0  0  0
    1.3302   -3.8119    0.0000 N   0  0  0  0  0  0  0  0  0  0  0  0
    1.9953   -4.9634    0.0000 C   0  0  0  0  0  0  0  0  0  0  0  0
    0.6651   -4.9634    0.0000 C   0  0  0  0  0  0  0  0  0  0  0  0
  1  2  2  0  0  0  0
  2  3  1  0  0  0  0
  2  6  1  0  0  0  0
  2  9  1  0  0  0  0
  3  4  1  0  0  0  0
  3  5  1  0  0  0  0
  4  5  1  0  0  0  0
  6  7  1  0  0  0  0
  6  8  1  0  0  0  0
  7  8  1  0  0  0  0
  9 10  1  0  0  0  0
  9 11  1  0  0  0  0
 10 11  1  0  0  0  0
M  END
>  <DSSTox_RID>
21339

>  <DSSTox_CID>
1339

>  <DSSTox_Generic_SID>
21339

>  <DSSTox_FileID>
1402_CPDBAS_v5d

>  <STRUCTURE_Formula>
C6H12N3PS

>  <STRUCTURE_MolecularWeight>
189.2183

>  <STRUCTURE_ChemicalType>
defined organic

>  <STRUCTURE_TestedForm_DefinedOrganic>
parent

>  <STRUCTURE_Shown>
tested chemical

>  <TestSubstance_ChemicalName>
Thio-TEPA

>  <TestSubstance_CASRN>
52-24-4

>  <TestSubstance_Description>
single chemical compound

>  <STRUCTURE_ChemicalName_IUPAC>
1,1',1''-phosphorothioyltriaziridine

>  <STRUCTURE_SMILES>
S=P(N1CC1)(N1CC1)N1CC1

>  <STRUCTURE_Parent_SMILES>
S=P(N1CC1)(N1CC1)N1CC1

>  <STRUCTURE_InChI>
InChI=1/C6H12N3PS/c11-10(7-1-2-7,8-3-4-8)9-5-6-9/h1-6H2

>  <STRUCTURE_InChIKey>
FOCVUCIESVLUNU-UHFFFAOYAI

>  <StudyType>
Carcinogenicity

>  <Endpoint>
TD50; Tumor Target Sites

>  <Species>
rat; mouse

>  <ActivityOutcome_CPDBAS_Mutagenicity>
active

>  <TD50_Rat_mg>
0.164

>  <TD50_Rat_mmol>
0.000867

>  <ActivityScore_CPDBAS_Rat>
57

>  <TD50_Rat_Note>
positive test results only by intraperitoneal or intravenous injection; TD50 is harmonic mean of more than one positive test

>  <TargetSites_Rat_Male>
ear Zymbals gland; hematopoietic system; skin

>  <TargetSites_Rat_Female>
ear Zymbals gland

>  <ActivityOutcome_CPDBAS_Rat>
active

>  <TD50_Mouse_mg>
0.223

>  <TD50_Mouse_mmol>
0.00118

>  <ActivityScore_CPDBAS_Mouse>
61

>  <TD50_Mouse_Note>
positive test results only by intraperitoneal or intravenous injection; TD50 is harmonic mean of more than one positive test

>  <TargetSites_Mouse_Male>
hematopoietic system; preputial gland; skin

>  <TargetSites_Mouse_Female>
hematopoietic system

>  <ActivityOutcome_CPDBAS_Mouse>
active

>  <ActivityOutcome_CPDBAS_SingleCellCall>
active

>  <ActivityOutcome_CPDBAS_MultiCellCall>
active

>  <ActivityOutcome_CPDBAS_MultiCellCall_Details>
multisite active; multisex active; multispecies active

>  <NTP_TechnicalReport>
TR 58

>  <ChemicalPage_URL>
http://potency.berkeley.edu/chempages/THIO-TEPA.html

$$$$



  4  3  0  0  0  0  0  0  0  0999 V2000
    1.9950    0.0000    0.0000 C   0  0  0  0  0  0  0  0  0  0  0  0
    1.3292   -1.1518    0.0000 C   0  0  0  0  0  0  0  0  0  0  0  0
    1.9950   -2.3037    0.0000 S   0  0  0  0  0  0  0  0  0  0  0  0
    0.0000   -1.1518    0.0000 N   0  0  0  0  0  0  0  0  0  0  0  0
  1  2  1  0  0  0  0
  2  3  2  0  0  0  0
  2  4  1  0  0  0  0
M  END
>  <DSSTox_RID>
21340

>  <DSSTox_CID>
1340

>  <DSSTox_Generic_SID>
21340

>  <DSSTox_FileID>
1403_CPDBAS_v5d

>  <STRUCTURE_Formula>
C2H5NS

>  <STRUCTURE_MolecularWeight>
75.1328

>  <STRUCTURE_ChemicalType>
defined organic

>  <STRUCTURE_TestedForm_DefinedOrganic>
parent

>  <STRUCTURE_Shown>
tested chemical

>  <TestSubstance_ChemicalName>
Thioacetamide

>  <TestSubstance_CASRN>
62-55-5

>  <TestSubstance_Description>
single chemical compound

>  <STRUCTURE_ChemicalName_IUPAC>
ethanethioamide

>  <STRUCTURE_SMILES>
CC(=S)N

>  <STRUCTURE_Parent_SMILES>
CC(=S)N

>  <STRUCTURE_InChI>
InChI=1/C2H5NS/c1-2(3)4/h1H3,(H2,3,4)/f/h3H2

>  <STRUCTURE_InChIKey>
YUKQRDCYNOVPGJ-ZZOWFUDICD

>  <StudyType>
Carcinogenicity

>  <Endpoint>
TD50; Tumor Target Sites

>  <Species>
rat; mouse

>  <ActivityOutcome_CPDBAS_Mutagenicity>
inactive

>  <TD50_Rat_mg>
11.5

>  <TD50_Rat_mmol>
0.153

>  <ActivityScore_CPDBAS_Rat>
34

>  <TargetSites_Rat_Male>
liver

>  <ActivityOutcome_CPDBAS_Rat>
active

>  <TD50_Mouse_mg>
8.81

>  <TD50_Mouse_mmol>
0.117

>  <ActivityScore_CPDBAS_Mouse>
39

>  <TD50_Mouse_Note>
TD50 is harmonic mean of more than one positive test; harmonic mean of TD50 includes a value for upper 99% confidence limit from study with 100% tumor incidence but no lifetable

>  <TargetSites_Mouse_Male>
liver

>  <TargetSites_Mouse_Female>
liver

>  <ActivityOutcome_CPDBAS_Mouse>
active

>  <ActivityOutcome_CPDBAS_SingleCellCall>
active

>  <ActivityOutcome_CPDBAS_MultiCellCall>
active

>  <ActivityOutcome_CPDBAS_MultiCellCall_Details>
multisex active; multispecies active

>  <ChemicalPage_URL>
http://potency.berkeley.edu/chempages/THIOACETAMIDE.html

$$$$



 25 26  0  0  0  0  0  0  0  0999 V2000
    0.1773   -4.1192    0.0000 C   0  0  0  0  0  0  0  0  0  0  0  0
    1.3301   -3.4582    0.0000 C   0  0  0  0  0  0  0  0  0  0  0  0
    1.9911   -4.6029    0.0000 C   0  0  0  0  0  0  0  0  0  0  0  0
    3.3212   -4.6029    0.0000 C   0  0  0  0  0  0  0  0  0  0  0  0
    3.9902   -5.7556    0.0000 C   0  0  0  0  0  0  0  0  0  0  0  0
    3.3212   -6.9083    0.0000 C   0  0  0  0  0  0  0  0  0  0  0  0
    1.9911   -6.9083    0.0000 C   0  0  0  0  0  0  0  0  0  0  0  0
    1.3301   -5.7556    0.0000 C   0  0  0  0  0  0  0  0  0  0  0  0
    0.0000   -5.7556    0.0000 O   0  0  0  0  0  0  0  0  0  0  0  0
    3.9902   -8.0611    0.0000 C   0  0  0  0  0  0  0  0  0  0  0  0
    5.3203   -5.7556    0.0000 S   0  0  0  0  0  0  0  0  0  0  0  0
    5.9813   -4.6029    0.0000 C   0  0  0  0  0  0  0  0  0  0  0  0
    5.3203   -3.4582    0.0000 C   0  0  0  0  0  0  0  0  0  0  0  0
    5.9813   -2.3055    0.0000 C   0  0  0  0  0  0  0  0  0  0  0  0
    7.3114   -2.3055    0.0000 C   0  0  0  0  0  0  0  0  0  0  0  0
    7.9805   -3.4582    0.0000 C   0  0  0  0  0  0  0  0  0  0  0  0
    7.3114   -4.6029    0.0000 C   0  0  0  0  0  0  0  0  0  0  0  0
    7.9805   -5.7556    0.0000 C   0  0  0  0  0  0  0  0  0  0  0  0
    7.9805   -1.1527    0.0000 O   0  0  0  0  0  0  0  0  0  0  0  0
    5.3203   -1.1527    0.0000 C   0  0  0  0  0  0  0  0  0  0  0  0
    4.1676   -1.8137    0.0000 C   0  0  0  0  0  0  0  0  0  0  0  0
    4.6512    0.0000    0.0000 C   0  0  0  0  0  0  0  0  0  0  0  0
    6.4730   -0.4837    0.0000 C   0  0  0  0  0  0  0  0  0  0  0  0
    0.6610   -2.3055    0.0000 C   0  0  0  0  0  0  0  0  0  0  0  0
    2.4828   -2.7891    0.0000 C   0  0  0  0  0  0  0  0  0  0  0  0
  1  2  1  0  0  0  0
  2  3  1  0  0  0  0
  2 24  1  0  0  0  0
  2 25  1  0  0  0  0
  3  4  2  0  0  0  0
  3  8  1  0  0  0  0
  4  5  1  0  0  0  0
  5  6  2  0  0  0  0
  5 11  1  0  0  0  0
  6  7  1  0  0  0  0
  6 10  1  0  0  0  0
  7  8  2  0  0  0  0
  8  9  1  0  0  0  0
 11 12  1  0  0  0  0
 12 13  2  0  0  0  0
 12 17  1  0  0  0  0
 13 14  1  0  0  0  0
 14 15  2  0  0  0  0
 14 20  1  0  0  0  0
 15 16  1  0  0  0  0
 15 19  1  0  0  0  0
 16 17  2  0  0  0  0
 17 18  1  0  0  0  0
 20 21  1  0  0  0  0
 20 22  1  0  0  0  0
 20 23  1  0  0  0  0
M  END
>  <DSSTox_RID>
21341

>  <DSSTox_CID>
1341

>  <DSSTox_Generic_SID>
21341

>  <DSSTox_FileID>
1404_CPDBAS_v5d

>  <STRUCTURE_Formula>
C22H30O2S

>  <STRUCTURE_MolecularWeight>
358.5374

>  <STRUCTURE_ChemicalType>
defined organic

>  <STRUCTURE_TestedForm_DefinedOrganic>
parent

>  <STRUCTURE_Shown>
tested chemical

>  <TestSubstance_ChemicalName>
4,4'-Thiobis(6-tert-butyl-m-cresol)

>  <TestSubstance_CASRN>
96-69-5

>  <TestSubstance_Description>
single chemical compound

>  <STRUCTURE_ChemicalName_IUPAC>
4,4'-thiobis[2-(1,1-dimethylethyl)-5-methylphenol]

>  <STRUCTURE_SMILES>
CC(C1=CC(=C(C=C1O)C)SC2=CC(=C(C=C2C)O)C(C)(C)C)(C)C

>  <STRUCTURE_Parent_SMILES>
CC(C1=CC(=C(C=C1O)C)SC2=CC(=C(C=C2C)O)C(C)(C)C)(C)C

>  <STRUCTURE_InChI>
InChI=1/C22H30O2S/c1-13-9-17(23)15(21(3,4)5)11-19(13)25-20-12-16(22(6,7)8)18(24)10-14(20)2/h9-12,23-24H,1-8H3

>  <STRUCTURE_InChIKey>
HXIQYSLFEXIOAV-UHFFFAOYAJ

>  <StudyType>
Carcinogenicity

>  <Endpoint>
TD50; Tumor Target Sites

>  <Species>
rat; mouse

>  <ActivityOutcome_CPDBAS_Mutagenicity>
inactive

>  <ActivityScore_CPDBAS_Rat>
0

>  <TD50_Rat_Note>
no positive results

>  <TargetSites_Rat_Male>
no positive results

>  <TargetSites_Rat_Female>
no positive results

>  <ActivityOutcome_CPDBAS_Rat>
inactive

>  <ActivityScore_CPDBAS_Mouse>
0

>  <TD50_Mouse_Note>
no positive results

>  <TargetSites_Mouse_Male>
no positive results

>  <TargetSites_Mouse_Female>
no positive results

>  <ActivityOutcome_CPDBAS_Mouse>
inactive

>  <ActivityOutcome_CPDBAS_SingleCellCall>
inactive

>  <ActivityOutcome_CPDBAS_MultiCellCall>
inactive

>  <ActivityOutcome_CPDBAS_MultiCellCall_Details>
multisex inactive; multispecies inactive

>  <NTP_TechnicalReport>
TR 435

>  <ChemicalPage_URL>
http://potency.berkeley.edu/chempages/4,4'-THIOBIS(6-tert-BUTYL-m-CRESOL).html

$$$$



 19 20  0  0  0  0  0  0  0  0999 V2000
    2.3032   -5.3158    0.0000 O   0  0  0  0  0  0  0  0  0  0  0  0
    2.3032   -3.9891    0.0000 C   0  0  0  0  0  0  0  0  0  0  0  0
    1.1516   -3.3166    0.0000 C   0  0  0  0  0  0  0  0  0  0  0  0
    1.1516   -1.9900    0.0000 C   0  0  0  0  0  0  0  0  0  0  0  0
    2.3032   -1.3266    0.0000 C   0  0  0  0  0  0  0  0  0  0  0  0
    3.4548   -1.9900    0.0000 C   0  0  0  0  0  0  0  0  0  0  0  0
    3.4548   -3.3166    0.0000 C   0  0  0  0  0  0  0  0  0  0  0  0
    4.6064   -3.9891    0.0000 S   0  0  0  0  0  0  0  0  0  0  0  0
    5.7580   -3.3166    0.0000 C   0  0  0  0  0  0  0  0  0  0  0  0
    5.7580   -1.9900    0.0000 C   0  0  0  0  0  0  0  0  0  0  0  0
    6.9096   -1.3266    0.0000 C   0  0  0  0  0  0  0  0  0  0  0  0
    8.0611   -1.9900    0.0000 C   0  0  0  0  0  0  0  0  0  0  0  0
    8.0611   -3.3166    0.0000 C   0  0  0  0  0  0  0  0  0  0  0  0
    6.9096   -3.9891    0.0000 C   0  0  0  0  0  0  0  0  0  0  0  0
    9.2127   -3.9891    0.0000 Cl  0  0  0  0  0  0  0  0  0  0  0  0
    6.9096    0.0000    0.0000 Cl  0  0  0  0  0  0  0  0  0  0  0  0
    4.6064   -1.3266    0.0000 O   0  0  0  0  0  0  0  0  0  0  0  0
    2.3032    0.0000    0.0000 Cl  0  0  0  0  0  0  0  0  0  0  0  0
    0.0000   -3.9891    0.0000 Cl  0  0  0  0  0  0  0  0  0  0  0  0
  1  2  1  0  0  0  0
  2  3  2  0  0  0  0
  2  7  1  0  0  0  0
  3  4  1  0  0  0  0
  3 19  1  0  0  0  0
  4  5  2  0  0  0  0
  5  6  1  0  0  0  0
  5 18  1  0  0  0  0
  6  7  2  0  0  0  0
  7  8  1  0  0  0  0
  8  9  1  0  0  0  0
  9 10  2  0  0  0  0
  9 14  1  0  0  0  0
 10 11  1  0  0  0  0
 10 17  1  0  0  0  0
 11 12  2  0  0  0  0
 11 16  1  0  0  0  0
 12 13  1  0  0  0  0
 13 14  2  0  0  0  0
 13 15  1  0  0  0  0
M  END
>  <DSSTox_RID>
21342

>  <DSSTox_CID>
1342

>  <DSSTox_Generic_SID>
21342

>  <DSSTox_FileID>
1405_CPDBAS_v5d

>  <STRUCTURE_Formula>
C12H6Cl4O2S

>  <STRUCTURE_MolecularWeight>
356.0518

>  <STRUCTURE_ChemicalType>
defined organic

>  <STRUCTURE_TestedForm_DefinedOrganic>
parent

>  <STRUCTURE_Shown>
tested chemical

>  <TestSubstance_ChemicalName>
2,2'-Thiobis(4,6-dichlorophenol)

>  <TestSubstance_CASRN>
97-18-7

>  <TestSubstance_Description>
single chemical compound

>  <STRUCTURE_ChemicalName_IUPAC>
2,2'-thiobis(4,6-dichlorophenol)

>  <STRUCTURE_SMILES>
OC1=C(C=C(C=C1SC2=C(C(=CC(=C2)Cl)Cl)O)Cl)Cl

>  <STRUCTURE_Parent_SMILES>
OC1=C(C=C(C=C1SC2=C(C(=CC(=C2)Cl)Cl)O)Cl)Cl

>  <STRUCTURE_InChI>
InChI=1/C12H6Cl4O2S/c13-5-1-7(15)11(17)9(3-5)19-10-4-6(14)2-8(16)12(10)18/h1-4,17-18H

>  <STRUCTURE_InChIKey>
JFIOVJDNOJYLKP-UHFFFAOYAO

>  <StudyType>
Carcinogenicity

>  <Endpoint>
TD50; Tumor Target Sites

>  <Species>
mouse

>  <ActivityOutcome_CPDBAS_Mutagenicity>
inactive

>  <ActivityScore_CPDBAS_Mouse>
0

>  <TD50_Mouse_Note>
no positive results

>  <TargetSites_Mouse_Male>
no positive results

>  <TargetSites_Mouse_Female>
no positive results

>  <ActivityOutcome_CPDBAS_Mouse>
inactive

>  <ActivityOutcome_CPDBAS_SingleCellCall>
inactive

>  <ActivityOutcome_CPDBAS_MultiCellCall>
inactive

>  <ActivityOutcome_CPDBAS_MultiCellCall_Details>
multisex inactive

>  <ChemicalPage_URL>
http://potency.berkeley.edu/chempages/2,2'-THIOBIS(4,6-DICHLOROPHENOL).html

$$$$



 15 16  0  0  0  0  0  0  0  0999 V2000
    1.3265   -1.1560    0.0000 C   0  0  0  0  0  0  0  0  0  0  0  0
    1.9898   -2.3025    0.0000 C   0  0  0  0  0  0  0  0  0  0  0  0
    3.3258   -2.3025    0.0000 C   0  0  0  0  0  0  0  0  0  0  0  0
    3.9891   -1.1560    0.0000 C   0  0  0  0  0  0  0  0  0  0  0  0
    3.3258    0.0000    0.0000 C   0  0  0  0  0  0  0  0  0  0  0  0
    1.9898    0.0000    0.0000 C   0  0  0  0  0  0  0  0  0  0  0  0
    5.3156   -1.1560    0.0000 S   0  0  0  0  0  0  0  0  0  0  0  0
    6.3200   -2.0277    0.0000 C   0  0  0  0  0  0  0  0  0  0  0  0
    6.1399   -3.3447    0.0000 C   0  0  0  0  0  0  0  0  0  0  0  0
    7.1917   -4.1596    0.0000 C   0  0  0  0  0  0  0  0  0  0  0  0
    8.4235   -3.6574    0.0000 C   0  0  0  0  0  0  0  0  0  0  0  0
    8.6035   -2.3404    0.0000 C   0  0  0  0  0  0  0  0  0  0  0  0
    7.5517   -1.5255    0.0000 C   0  0  0  0  0  0  0  0  0  0  0  0
    0.0000   -1.1560    0.0000 N   0  0  0  0  0  0  0  0  0  0  0  0
    9.4752   -4.4723    0.0000 N   0  0  0  0  0  0  0  0  0  0  0  0
  1  2  2  0  0  0  0
  1  6  1  0  0  0  0
  1 14  1  0  0  0  0
  2  3  1  0  0  0  0
  3  4  2  0  0  0  0
  4  5  1  0  0  0  0
  4  7  1  0  0  0  0
  5  6  2  0  0  0  0
  7  8  1  0  0  0  0
  8  9  2  0  0  0  0
  8 13  1  0  0  0  0
  9 10  1  0  0  0  0
 10 11  2  0  0  0  0
 11 12  1  0  0  0  0
 11 15  1  0  0  0  0
 12 13  2  0  0  0  0
M  END
>  <DSSTox_RID>
21344

>  <DSSTox_CID>
1344

>  <DSSTox_Generic_SID>
21344

>  <DSSTox_FileID>
1407_CPDBAS_v5d

>  <STRUCTURE_Formula>
C12H12N2S

>  <STRUCTURE_MolecularWeight>
216.3021

>  <STRUCTURE_ChemicalType>
defined organic

>  <STRUCTURE_TestedForm_DefinedOrganic>
parent

>  <STRUCTURE_Shown>
tested chemical

>  <TestSubstance_ChemicalName>
4,4'-Thiodianiline

>  <TestSubstance_CASRN>
139-65-1

>  <TestSubstance_Description>
single chemical compound

>  <STRUCTURE_ChemicalName_IUPAC>
4,4'-thiodianiline

>  <STRUCTURE_SMILES>
C1(=CC=C(C=C1)SC2=CC=C(C=C2)N)N

>  <STRUCTURE_Parent_SMILES>
C1(=CC=C(C=C1)SC2=CC=C(C=C2)N)N

>  <STRUCTURE_InChI>
InChI=1/C12H12N2S/c13-9-1-5-11(6-2-9)15-12-7-3-10(14)4-8-12/h1-8H,13-14H2

>  <STRUCTURE_InChIKey>
ICNFHJVPAJKPHW-UHFFFAOYAM

>  <StudyType>
Carcinogenicity

>  <Endpoint>
TD50; Tumor Target Sites

>  <Species>
rat; mouse

>  <ActivityOutcome_CPDBAS_Mutagenicity>
active

>  <TD50_Rat_mg>
3.71

>  <TD50_Rat_mmol>
0.0172

>  <ActivityScore_CPDBAS_Rat>
44

>  <TD50_Rat_Note>
TD50 is harmonic mean of more than one positive test

>  <TargetSites_Rat_Male>
ear Zymbals gland; large intestine; liver; thyroid gland

>  <TargetSites_Rat_Female>
ear Zymbals gland; thyroid gland; uterus

>  <ActivityOutcome_CPDBAS_Rat>
active

>  <TD50_Mouse_mg>
33.2

>  <TD50_Mouse_mmol>
0.153

>  <ActivityScore_CPDBAS_Mouse>
37

>  <TD50_Mouse_Note>
TD50 is harmonic mean of more than one positive test

>  <TargetSites_Mouse_Male>
liver; thyroid gland

>  <TargetSites_Mouse_Female>
liver; thyroid gland

>  <ActivityOutcome_CPDBAS_Mouse>
active

>  <ActivityOutcome_CPDBAS_SingleCellCall>
active

>  <ActivityOutcome_CPDBAS_MultiCellCall>
active

>  <ActivityOutcome_CPDBAS_MultiCellCall_Details>
multisite active; multisex active; multispecies active

>  <NTP_TechnicalReport>
TR 47

>  <ChemicalPage_URL>
http://potency.berkeley.edu/chempages/4,4'-THIODIANILINE.html

$$$$



 19 21  0  0  1  0  0  0  0  0999 V2000
    1.1046   -1.9079    0.0000 N   0  0  0  0  0  0  0  0  0  0  0  0
    1.1046   -3.1714    0.0000 C   0  0  0  0  0  0  0  0  0  0  0  0
    2.2091   -3.8074    0.0000 N   0  0  0  0  0  0  0  0  0  0  0  0
    3.2969   -3.1714    0.0000 C   0  0  0  0  0  0  0  0  0  0  0  0
    3.2969   -1.9079    0.0000 C   0  0  0  0  0  0  0  0  0  0  0  0
    2.2091   -1.2719    0.0000 C   0  0  0  0  0  0  0  0  0  0  0  0
    2.2091    0.0000    0.0000 S   0  0  0  0  0  0  0  0  0  0  0  0
    4.5103   -1.5146    0.0000 N   0  0  0  0  0  0  0  0  0  0  0  0
    5.2634   -2.5355    0.0000 C   0  0  0  0  0  0  0  0  0  0  0  0
    4.5103   -3.5731    0.0000 N   0  0  0  0  0  0  0  0  0  0  0  0
    4.5019   -6.0667    0.0000 C   0  0  1  0  0  0  0  0  0  0  0  0
    4.1337   -7.2967    0.0000 C   0  0  0  0  0  0  0  0  0  0  0  0
    2.8618   -7.3218    0.0000 C   0  0  1  0  0  0  0  0  0  0  0  0
    2.4434   -6.1169    0.0000 C   0  0  2  0  0  0  0  0  0  0  0  0
    3.4475   -5.3470    0.0000 O   0  0  0  0  0  0  0  0  0  0  0  0
    1.2217   -5.7571    0.0000 C   0  0  0  0  0  0  0  0  0  0  0  0
    0.9288   -4.5186    0.0000 O   0  0  0  0  0  0  0  0  0  0  0  0
    2.1422   -8.3678    0.0000 O   0  0  0  0  0  0  0  0  0  0  0  0
    0.0000   -3.8074    0.0000 N   0  0  0  0  0  0  0  0  0  0  0  0
  1  2  1  0  0  0  0
  1  6  1  0  0  0  0
  2  3  2  0  0  0  0
  2 19  1  0  0  0  0
  3  4  1  0  0  0  0
  4  5  2  0  0  0  0
  4 10  1  0  0  0  0
  5  6  1  0  0  0  0
  5  8  1  0  0  0  0
  6  7  2  0  0  0  0
  8  9  2  0  0  0  0
  9 10  1  0  0  0  0
 11 10  1  1  0  0  0
 11 12  1  0  0  0  0
 11 15  1  0  0  0  0
 12 13  1  0  0  0  0
 13 14  1  0  0  0  0
 13 18  1  6  0  0  0
 14 15  1  0  0  0  0
 14 16  1  1  0  0  0
 16 17  1  0  0  0  0
M  END
>  <DSSTox_RID>
21345

>  <DSSTox_CID>
1345

>  <DSSTox_Generic_SID>
21345

>  <DSSTox_FileID>
1408_CPDBAS_v5d

>  <STRUCTURE_Formula>
C10H13N5O3S

>  <STRUCTURE_MolecularWeight>
283.3069

>  <STRUCTURE_ChemicalType>
defined organic

>  <STRUCTURE_TestedForm_DefinedOrganic>
parent

>  <STRUCTURE_Shown>
tested chemical

>  <TestSubstance_ChemicalName>
beta-Thioguanine deoxyriboside

>  <TestSubstance_CASRN>
789-61-7

>  <TestSubstance_Description>
single chemical compound

>  <ChemicalNote>
stereochem

>  <STRUCTURE_ChemicalName_IUPAC>
2-amino-9-(2-deoxy-beta-D-erythro-pentofuranosyl)-1,9-dihydro-6H-purine-6-thione

>  <STRUCTURE_SMILES>
N1/C(=N\C2=C(C1=S)N=CN2[C@]3(C([C@@]([C@](O3)(CO)[H])(O)[H])([H])[H])[H])N

>  <STRUCTURE_Parent_SMILES>
N1/C(=N\C2=C(C1=S)N=CN2[C@]3(C([C@@]([C@](O3)(CO)[H])(O)[H])([H])[H])[H])N

>  <STRUCTURE_InChI>
InChI=1/C10H13N5O3S/c11-10-13-8-7(9(19)14-10)12-3-15(8)6-1-4(17)5(2-16)18-6/h3-6,16-17H,1-2H2,(H3,11,13,14,19)/t4-,5+,6+/m0/s1/f/h14H,11H2

>  <STRUCTURE_InChIKey>
SCVJRXQHFJXZFZ-GCRWVGKADP

>  <StudyType>
Carcinogenicity

>  <Endpoint>
TD50; Tumor Target Sites

>  <Species>
rat; mouse

>  <TD50_Rat_mg>
2.1

>  <TD50_Rat_mmol>
0.00741

>  <ActivityScore_CPDBAS_Rat>
48

>  <TD50_Rat_Note>
positive test results only by intraperitoneal or intravenous injection

>  <TargetSites_Rat_Male>
no positive results

>  <TargetSites_Rat_Female>
ear Zymbals gland

>  <ActivityOutcome_CPDBAS_Rat>
active

>  <ActivityScore_CPDBAS_Mouse>
0

>  <TD50_Mouse_Note>
only experiment is NCI NTP bioassay inadequate

>  <TargetSites_Mouse_Male>
NTP bioassay inadequate

>  <TargetSites_Mouse_Female>
NTP bioassay inadequate

>  <ActivityOutcome_CPDBAS_Mouse>
unspecified

>  <ActivityOutcome_CPDBAS_SingleCellCall>
active

>  <Note_CPDBAS>
ActivityOutcome_CPDBAS_Mouse modified v5d

>  <NTP_TechnicalReport>
TR 057

>  <ChemicalPage_URL>
http://potency.berkeley.edu/chempages/beta-THIOGUANINE%20DEOXYRIBOSIDE.html

$$$$



  5  4  0  0  0  0  0  0  0  0999 V2000
    0.0000   -1.9945    0.0000 N   0  0  0  0  0  0  0  0  0  0  0  0
    1.1511   -1.3308    0.0000 C   0  0  0  0  0  0  0  0  0  0  0  0
    1.1511    0.0000    0.0000 S   0  0  0  0  0  0  0  0  0  0  0  0
    2.3056   -1.9945    0.0000 N   0  0  0  0  0  0  0  0  0  0  0  0
    3.4567   -1.3308    0.0000 N   0  0  0  0  0  0  0  0  0  0  0  0
  1  2  1  0  0  0  0
  2  3  2  0  0  0  0
  2  4  1  0  0  0  0
  4  5  1  0  0  0  0
M  END
>  <DSSTox_RID>
21346

>  <DSSTox_CID>
1346

>  <DSSTox_Generic_SID>
21346

>  <DSSTox_FileID>
1409_CPDBAS_v5d

>  <STRUCTURE_Formula>
CH5N3S

>  <STRUCTURE_MolecularWeight>
91.1355

>  <STRUCTURE_ChemicalType>
defined organic

>  <STRUCTURE_TestedForm_DefinedOrganic>
parent

>  <STRUCTURE_Shown>
tested chemical

>  <TestSubstance_ChemicalName>
Thiosemicarbazide

>  <TestSubstance_CASRN>
79-19-6

>  <TestSubstance_Description>
single chemical compound

>  <STRUCTURE_ChemicalName_IUPAC>
hydrazinecarbothioamide

>  <STRUCTURE_SMILES>
NC(=S)NN

>  <STRUCTURE_Parent_SMILES>
NC(=S)NN

>  <STRUCTURE_InChI>
InChI=1/CH5N3S/c2-1(5)4-3/h3H2,(H3,2,4,5)/f/h4H,2H2

>  <STRUCTURE_InChIKey>
BRWIZMBXBAOCCF-QNIGSVHNCI

>  <StudyType>
Carcinogenicity

>  <Endpoint>
TD50; Tumor Target Sites

>  <Species>
rat; mouse

>  <ActivityScore_CPDBAS_Rat>
0

>  <TD50_Rat_Note>
no positive results

>  <TargetSites_Rat_Female>
no positive results

>  <ActivityOutcome_CPDBAS_Rat>
inactive

>  <ActivityScore_CPDBAS_Mouse>
0

>  <TD50_Mouse_Note>
no positive results

>  <TargetSites_Mouse_Male>
no positive results

>  <TargetSites_Mouse_Female>
no positive results

>  <ActivityOutcome_CPDBAS_Mouse>
inactive

>  <ActivityOutcome_CPDBAS_SingleCellCall>
inactive

>  <ActivityOutcome_CPDBAS_MultiCellCall>
inactive

>  <ActivityOutcome_CPDBAS_MultiCellCall_Details>
multisex inactive; multispecies inactive

>  <ChemicalPage_URL>
http://potency.berkeley.edu/chempages/THIOSEMICARBAZIDE.html

$$$$



  8  8  0  0  0  0  0  0  0  0999 V2000
    4.6080   -2.6588    0.0000 O   0  0  0  0  0  0  0  0  0  0  0  0
    3.4560   -1.9953    0.0000 C   0  0  0  0  0  0  0  0  0  0  0  0
    2.3040   -2.6588    0.0000 N   0  0  0  0  0  0  0  0  0  0  0  0
    1.1520   -1.9953    0.0000 C   0  0  0  0  0  0  0  0  0  0  0  0
    0.0000   -2.6588    0.0000 S   0  0  0  0  0  0  0  0  0  0  0  0
    1.1520   -0.6635    0.0000 N   0  0  0  0  0  0  0  0  0  0  0  0
    2.3040    0.0000    0.0000 C   0  0  0  0  0  0  0  0  0  0  0  0
    3.4560   -0.6635    0.0000 C   0  0  0  0  0  0  0  0  0  0  0  0
  1  2  2  0  0  0  0
  2  3  1  0  0  0  0
  2  8  1  0  0  0  0
  3  4  1  0  0  0  0
  4  5  2  0  0  0  0
  4  6  1  0  0  0  0
  6  7  1  0  0  0  0
  7  8  2  0  0  0  0
M  END
>  <DSSTox_RID>
21347

>  <DSSTox_CID>
1347

>  <DSSTox_Generic_SID>
21347

>  <DSSTox_FileID>
1410_CPDBAS_v5d

>  <STRUCTURE_Formula>
C4H4N2OS

>  <STRUCTURE_MolecularWeight>
128.1484

>  <STRUCTURE_ChemicalType>
defined organic

>  <STRUCTURE_TestedForm_DefinedOrganic>
parent

>  <STRUCTURE_Shown>
tested chemical

>  <TestSubstance_ChemicalName>
Thiouracil

>  <TestSubstance_CASRN>
141-90-2

>  <TestSubstance_Description>
single chemical compound

>  <STRUCTURE_ChemicalName_IUPAC>
2-thioxo-2,3-dihydropyrimidin-4(1H)-one

>  <STRUCTURE_SMILES>
O=C1NC(=S)NC=C1

>  <STRUCTURE_Parent_SMILES>
O=C1NC(=S)NC=C1

>  <STRUCTURE_InChI>
InChI=1/C4H4N2OS/c7-3-1-2-5-4(8)6-3/h1-2H,(H2,5,6,7,8)/f/h5-6H

>  <STRUCTURE_InChIKey>
ZEMGGZBWXRYJHK-JYEHRPOACM

>  <StudyType>
Carcinogenicity

>  <Endpoint>
TD50; Tumor Target Sites

>  <Species>
rat; mouse

>  <TD50_Rat_mg>
11.9

>  <TD50_Rat_mmol>
0.0929

>  <ActivityScore_CPDBAS_Rat>
36

>  <TD50_Rat_Note>
TD50 is harmonic mean of more than one positive test

>  <TargetSites_Rat_Male>
thyroid gland

>  <TargetSites_Rat_Female>
thyroid gland

>  <ActivityOutcome_CPDBAS_Rat>
active

>  <TD50_Mouse_mg>
55

>  <TD50_Mouse_mmol>
0.429

>  <ActivityScore_CPDBAS_Mouse>
32

>  <TD50_Mouse_Note>
TD50 is harmonic mean of more than one positive test

>  <TargetSites_Mouse_Male>
liver

>  <TargetSites_Mouse_Female>
liver

>  <ActivityOutcome_CPDBAS_Mouse>
active

>  <ActivityOutcome_CPDBAS_SingleCellCall>
active

>  <ActivityOutcome_CPDBAS_MultiCellCall>
active

>  <ActivityOutcome_CPDBAS_MultiCellCall_Details>
multisite active; multisex active; multispecies active

>  <ChemicalPage_URL>
http://potency.berkeley.edu/chempages/THIOURACIL.html

$$$$



  4  3  0  0  0  0  0  0  0  0999 V2000
    1.9950    0.0000    0.0000 N   0  0  0  0  0  0  0  0  0  0  0  0
    1.3292   -1.1518    0.0000 C   0  0  0  0  0  0  0  0  0  0  0  0
    1.9950   -2.3037    0.0000 S   0  0  0  0  0  0  0  0  0  0  0  0
    0.0000   -1.1518    0.0000 N   0  0  0  0  0  0  0  0  0  0  0  0
  1  2  1  0  0  0  0
  2  3  2  0  0  0  0
  2  4  1  0  0  0  0
M  END
>  <DSSTox_RID>
21348

>  <DSSTox_CID>
1348

>  <DSSTox_Generic_SID>
21348

>  <DSSTox_FileID>
1411_CPDBAS_v5d

>  <STRUCTURE_Formula>
CH4N2S

>  <STRUCTURE_MolecularWeight>
76.1209

>  <STRUCTURE_ChemicalType>
defined organic

>  <STRUCTURE_TestedForm_DefinedOrganic>
parent

>  <STRUCTURE_Shown>
tested chemical

>  <TestSubstance_ChemicalName>
Thiourea

>  <TestSubstance_CASRN>
62-56-6

>  <TestSubstance_Description>
single chemical compound

>  <STRUCTURE_ChemicalName_IUPAC>
thiourea

>  <STRUCTURE_SMILES>
NC(=S)N

>  <STRUCTURE_Parent_SMILES>
NC(=S)N

>  <STRUCTURE_InChI>
InChI=1/CH4N2S/c2-1(3)4/h(H4,2,3,4)/f/h2-3H2

>  <STRUCTURE_InChIKey>
UMGDCJDMYOKAJW-UBUOBULFCT

>  <StudyType>
Carcinogenicity

>  <Endpoint>
TD50; Tumor Target Sites

>  <Species>
rat; mouse

>  <ActivityOutcome_CPDBAS_Mutagenicity>
inactive

>  <TD50_Rat_mg>
98.5

>  <TD50_Rat_mmol>
1.29

>  <ActivityScore_CPDBAS_Rat>
25

>  <TD50_Rat_Note>
TD50 is harmonic mean of more than one positive test

>  <TargetSites_Rat_Male>
skin

>  <TargetSites_Rat_Female>
no positive results

>  <ActivityOutcome_CPDBAS_Rat>
active

>  <ActivityScore_CPDBAS_Mouse>
0

>  <TD50_Mouse_Note>
no positive results

>  <TargetSites_Mouse_Female>
no positive results

>  <ActivityOutcome_CPDBAS_Mouse>
inactive

>  <ActivityOutcome_CPDBAS_SingleCellCall>
active

>  <ChemicalPage_URL>
http://potency.berkeley.edu/chempages/THIOUREA.html

$$$$



 31 32  0  0  0  0  0  0  0  0999 V2000
   16.6026    0.0000    0.0000 C   0  0  0  0  0  0  0  0  0  0  0  0
   17.2824   -1.1535    0.0000 C   0  0  0  0  0  0  0  0  0  0  0  0
   18.6007   -1.1535    0.0000 C   0  0  0  0  0  0  0  0  0  0  0  0
   19.2599   -2.3071    0.0000 C   0  0  0  0  0  0  0  0  0  0  0  0
   18.6007   -3.4606    0.0000 C   0  0  0  0  0  0  0  0  0  0  0  0
   17.2824   -3.4606    0.0000 C   0  0  0  0  0  0  0  0  0  0  0  0
   16.6026   -2.3071    0.0000 C   0  0  0  0  0  0  0  0  0  0  0  0
   15.2843   -2.3071    0.0000 O   0  0  0  0  0  0  0  0  0  0  0  0
   14.6251   -3.4606    0.0000 C   0  0  3  0  0  0  0  0  0  0  0  0
   13.5952   -4.3257    0.0000 C   0  0  0  0  0  0  0  0  0  0  0  0
   12.3593   -3.8726    0.0000 C   0  0  0  0  0  0  0  0  0  0  0  0
   11.3293   -4.7171    0.0000 C   0  0  0  0  0  0  0  0  0  0  0  0
   10.0934   -4.2639    0.0000 C   0  0  3  0  0  0  0  0  0  0  0  0
    9.0635   -5.1085    0.0000 C   0  0  0  0  0  0  0  0  0  0  0  0
    7.8275   -4.6553    0.0000 C   0  0  0  0  0  0  0  0  0  0  0  0
    6.7976   -5.5205    0.0000 C   0  0  0  0  0  0  0  0  0  0  0  0
    5.5617   -5.0673    0.0000 C   0  0  3  0  0  0  0  0  0  0  0  0
    4.5317   -5.9118    0.0000 C   0  0  0  0  0  0  0  0  0  0  0  0
    3.2752   -5.4587    0.0000 C   0  0  0  0  0  0  0  0  0  0  0  0
    2.2659   -6.3238    0.0000 C   0  0  0  0  0  0  0  0  0  0  0  0
    1.0093   -5.8707    0.0000 C   0  0  0  0  0  0  0  0  0  0  0  0
    0.0000   -6.7152    0.0000 C   0  0  0  0  0  0  0  0  0  0  0  0
    0.7828   -4.5523    0.0000 C   0  0  0  0  0  0  0  0  0  0  0  0
    5.3145   -3.7490    0.0000 C   0  0  0  0  0  0  0  0  0  0  0  0
    9.8462   -2.9456    0.0000 C   0  0  0  0  0  0  0  0  0  0  0  0
   13.5952   -2.6160    0.0000 C   0  0  0  0  0  0  0  0  0  0  0  0
   15.2843   -4.6141    0.0000 C   0  0  0  0  0  0  0  0  0  0  0  0
   16.6026   -4.6141    0.0000 C   0  0  0  0  0  0  0  0  0  0  0  0
   19.2599   -4.6141    0.0000 C   0  0  0  0  0  0  0  0  0  0  0  0
   20.5988   -2.3071    0.0000 O   0  0  0  0  0  0  0  0  0  0  0  0
   19.2599    0.0000    0.0000 C   0  0  0  0  0  0  0  0  0  0  0  0
  1  2  1  0  0  0  0
  2  3  2  0  0  0  0
  2  7  1  0  0  0  0
  3  4  1  0  0  0  0
  3 31  1  0  0  0  0
  4  5  2  0  0  0  0
  4 30  1  0  0  0  0
  5  6  1  0  0  0  0
  5 29  1  0  0  0  0
  6  7  2  0  0  0  0
  6 28  1  0  0  0  0
  7  8  1  0  0  0  0
  8  9  1  0  0  0  0
  9 10  1  0  0  0  0
  9 26  1  0  0  0  0
  9 27  1  0  0  0  0
 10 11  1  0  0  0  0
 11 12  1  0  0  0  0
 12 13  1  0  0  0  0
 13 14  1  0  0  0  0
 13 25  1  0  0  0  0
 14 15  1  0  0  0  0
 15 16  1  0  0  0  0
 16 17  1  0  0  0  0
 17 18  1  0  0  0  0
 17 24  1  0  0  0  0
 18 19  1  0  0  0  0
 19 20  1  0  0  0  0
 20 21  1  0  0  0  0
 21 22  1  0  0  0  0
 21 23  1  0  0  0  0
 27 28  1  0  0  0  0
M  END
>  <DSSTox_RID>
21355

>  <DSSTox_CID>
1355

>  <DSSTox_Generic_SID>
21355

>  <DSSTox_FileID>
1418_CPDBAS_v5d

>  <STRUCTURE_Formula>
C29H50O2

>  <STRUCTURE_MolecularWeight>
430.7128

>  <STRUCTURE_ChemicalType>
defined organic

>  <STRUCTURE_TestedForm_DefinedOrganic>
parent

>  <STRUCTURE_Shown>
tested chemical

>  <TestSubstance_ChemicalName>
dl-alpha-Tocopherol

>  <TestSubstance_CASRN>
10191-41-0

>  <TestSubstance_Description>
single chemical compound

>  <ChemicalNote>
racemic mixture of d- [59-02-9], l-, structure shown without stereochem

>  <STRUCTURE_ChemicalName_IUPAC>
2,5,7,8-tetramethyl-2-(4,8,12-trimethyltridecyl)-3,4-dihydro-2H-chromen-6-ol

>  <STRUCTURE_SMILES>
CC1=C(C(=C(C2=C1OC(CCCC(CCCC(CCCC(C)C)C)C)(C)CC2)C)O)C

>  <STRUCTURE_Parent_SMILES>
CC1=C(C(=C(C2=C1OC(CCCC(CCCC(CCCC(C)C)C)C)(C)CC2)C)O)C

>  <STRUCTURE_InChI>
InChI=1/C29H50O2/c1-20(2)12-9-13-21(3)14-10-15-22(4)16-11-18-29(8)19-17-26-25(7)27(30)23(5)24(6)28(26)31-29/h20-22,30H,9-19H2,1-8H3

>  <STRUCTURE_InChIKey>
GVJHHUAWPYXKBD-UHFFFAOYAV

>  <StudyType>
Carcinogenicity

>  <Endpoint>
TD50; Tumor Target Sites

>  <Species>
rat

>  <ActivityScore_CPDBAS_Rat>
0

>  <TD50_Rat_Note>
no positive results

>  <TargetSites_Rat_Male>
no positive results

>  <TargetSites_Rat_Female>
no positive results

>  <ActivityOutcome_CPDBAS_Rat>
inactive

>  <ActivityOutcome_CPDBAS_SingleCellCall>
inactive

>  <ChemicalPage_URL>
http://potency.berkeley.edu/chempages/DL-alpha-TOCOPHEROL.html

$$$$



 34 35  0  0  0  0  0  0  0  0999 V2000
   18.6243   -3.4582    0.0000 C   0  0  0  0  0  0  0  0  0  0  0  0
   17.2908   -3.4582    0.0000 C   0  0  0  0  0  0  0  0  0  0  0  0
   16.6127   -4.6109    0.0000 C   0  0  0  0  0  0  0  0  0  0  0  0
   16.6127   -2.3054    0.0000 C   0  0  0  0  0  0  0  0  0  0  0  0
   15.2792   -2.3054    0.0000 O   0  0  0  0  0  0  0  0  0  0  0  0
   14.6237   -1.1527    0.0000 C   0  0  3  0  0  0  0  0  0  0  0  0
   15.2792    0.0000    0.0000 C   0  0  0  0  0  0  0  0  0  0  0  0
   13.6066   -2.0116    0.0000 C   0  0  0  0  0  0  0  0  0  0  0  0
   12.3635   -1.5596    0.0000 C   0  0  0  0  0  0  0  0  0  0  0  0
   11.3464   -2.4185    0.0000 C   0  0  0  0  0  0  0  0  0  0  0  0
   10.0806   -1.9664    0.0000 C   0  0  3  0  0  0  0  0  0  0  0  0
    9.0635   -2.8027    0.0000 C   0  0  0  0  0  0  0  0  0  0  0  0
    7.8204   -2.3506    0.0000 C   0  0  0  0  0  0  0  0  0  0  0  0
    6.8033   -3.2095    0.0000 C   0  0  0  0  0  0  0  0  0  0  0  0
    5.5602   -2.7575    0.0000 C   0  0  3  0  0  0  0  0  0  0  0  0
    4.5431   -3.6164    0.0000 C   0  0  0  0  0  0  0  0  0  0  0  0
    3.2773   -3.1643    0.0000 C   0  0  0  0  0  0  0  0  0  0  0  0
    2.2602   -4.0006    0.0000 C   0  0  0  0  0  0  0  0  0  0  0  0
    1.0171   -3.5486    0.0000 C   0  0  0  0  0  0  0  0  0  0  0  0
    0.0000   -4.4075    0.0000 C   0  0  0  0  0  0  0  0  0  0  0  0
    0.7911   -2.2376    0.0000 C   0  0  0  0  0  0  0  0  0  0  0  0
    5.3342   -1.4466    0.0000 C   0  0  0  0  0  0  0  0  0  0  0  0
    9.8546   -0.6555    0.0000 C   0  0  0  0  0  0  0  0  0  0  0  0
   13.6066   -0.2938    0.0000 C   0  0  0  0  0  0  0  0  0  0  0  0
   17.2908   -1.1527    0.0000 C   0  0  0  0  0  0  0  0  0  0  0  0
   16.6127    0.0000    0.0000 C   0  0  0  0  0  0  0  0  0  0  0  0
   19.2798   -2.3054    0.0000 C   0  0  0  0  0  0  0  0  0  0  0  0
   18.6243   -1.1527    0.0000 C   0  0  0  0  0  0  0  0  0  0  0  0
   19.2798    0.0000    0.0000 C   0  0  0  0  0  0  0  0  0  0  0  0
   20.6133   -2.3054    0.0000 O   0  0  0  0  0  0  0  0  0  0  0  0
   21.2688   -3.4582    0.0000 C   0  0  0  0  0  0  0  0  0  0  0  0
   20.6133   -4.6109    0.0000 O   0  0  0  0  0  0  0  0  0  0  0  0
   22.6023   -3.4582    0.0000 C   0  0  0  0  0  0  0  0  0  0  0  0
   19.2798   -4.6109    0.0000 C   0  0  0  0  0  0  0  0  0  0  0  0
  1  2  2  0  0  0  0
  1 27  1  0  0  0  0
  1 34  1  0  0  0  0
  2  3  1  0  0  0  0
  2  4  1  0  0  0  0
  4  5  1  0  0  0  0
  4 25  2  0  0  0  0
  5  6  1  0  0  0  0
  6  7  1  0  0  0  0
  6  8  1  0  0  0  0
  6 24  1  0  0  0  0
  7 26  1  0  0  0  0
  8  9  1  0  0  0  0
  9 10  1  0  0  0  0
 10 11  1  0  0  0  0
 11 12  1  0  0  0  0
 11 23  1  0  0  0  0
 12 13  1  0  0  0  0
 13 14  1  0  0  0  0
 14 15  1  0  0  0  0
 15 16  1  0  0  0  0
 15 22  1  0  0  0  0
 16 17  1  0  0  0  0
 17 18  1  0  0  0  0
 18 19  1  0  0  0  0
 19 20  1  0  0  0  0
 19 21  1  0  0  0  0
 25 26  1  0  0  0  0
 25 28  1  0  0  0  0
 27 28  2  0  0  0  0
 27 30  1  0  0  0  0
 28 29  1  0  0  0  0
 30 31  1  0  0  0  0
 31 32  2  0  0  0  0
 31 33  1  0  0  0  0
M  END
>  <DSSTox_RID>
21356

>  <DSSTox_CID>
1356

>  <DSSTox_Generic_SID>
21356

>  <DSSTox_FileID>
1419_CPDBAS_v5d

>  <STRUCTURE_Formula>
C31H52O3

>  <STRUCTURE_MolecularWeight>
472.75

>  <STRUCTURE_ChemicalType>
defined organic

>  <STRUCTURE_TestedForm_DefinedOrganic>
parent

>  <STRUCTURE_Shown>
tested chemical

>  <TestSubstance_ChemicalName>
dl-alpha-Tocopheryl acetate

>  <TestSubstance_CASRN>
7695-91-2

>  <TestSubstance_Description>
single chemical compound

>  <ChemicalNote>
racemic mixture of dl-, structure shown without stereochem

>  <STRUCTURE_ChemicalName_IUPAC>
2,5,7,8-tetramethyl-2-(4,8,12-trimethyltridecyl)-3,4-dihydro-2H-chromen-6-yl acetate

>  <STRUCTURE_SMILES>
C1(=C(C)C2OC(CCC=2C(=C1OC(=O)C)C)(CCCC(CCCC(CCCC(C)C)C)C)C)C

>  <STRUCTURE_Parent_SMILES>
C1(=C(C)C2OC(CCC=2C(=C1OC(=O)C)C)(CCCC(CCCC(CCCC(C)C)C)C)C)C

>  <STRUCTURE_InChI>
InChI=1/C31H52O3/c1-21(2)13-10-14-22(3)15-11-16-23(4)17-12-19-31(9)20-18-28-26(7)29(33-27(8)32)24(5)25(6)30(28)34-31/h21-23H,10-20H2,1-9H3

>  <STRUCTURE_InChIKey>
ZAKOWWREFLAJOT-UHFFFAOYAN

>  <StudyType>
Carcinogenicity

>  <Endpoint>
TD50; Tumor Target Sites

>  <Species>
rat

>  <ActivityOutcome_CPDBAS_Mutagenicity>
inactive

>  <ActivityScore_CPDBAS_Rat>
0

>  <TD50_Rat_Note>
no positive results

>  <TargetSites_Rat_Male>
no positive results

>  <TargetSites_Rat_Female>
no positive results

>  <ActivityOutcome_CPDBAS_Rat>
inactive

>  <ActivityOutcome_CPDBAS_SingleCellCall>
inactive

>  <ActivityOutcome_CPDBAS_MultiCellCall>
inactive

>  <ActivityOutcome_CPDBAS_MultiCellCall_Details>
multisex inactive

>  <ChemicalPage_URL>
http://potency.berkeley.edu/chempages/DL-alpha-TOCOPHEROL%20ACETATE.html

$$$$



 21 22  0  0  0  0  0  0  0  0999 V2000
    3.9433   -3.8107    0.0000 O   0  0  0  0  0  0  0  0  0  0  0  0
    4.6066   -2.6651    0.0000 S   0  0  0  0  0  0  0  0  0  0  0  0
    5.2698   -1.5074    0.0000 O   0  0  0  0  0  0  0  0  0  0  0  0
    3.4489   -1.9898    0.0000 C   0  0  0  0  0  0  0  0  0  0  0  0
    2.3033   -2.6651    0.0000 C   0  0  0  0  0  0  0  0  0  0  0  0
    1.1456   -1.9898    0.0000 C   0  0  0  0  0  0  0  0  0  0  0  0
    1.1456   -0.6633    0.0000 C   0  0  0  0  0  0  0  0  0  0  0  0
    2.3033    0.0000    0.0000 C   0  0  0  0  0  0  0  0  0  0  0  0
    3.4489   -0.6633    0.0000 C   0  0  0  0  0  0  0  0  0  0  0  0
    0.0000    0.0000    0.0000 C   0  0  0  0  0  0  0  0  0  0  0  0
    5.7522   -3.3283    0.0000 N   0  0  0  0  0  0  0  0  0  0  0  0
    6.9099   -2.6651    0.0000 C   0  0  0  0  0  0  0  0  0  0  0  0
    6.9099   -1.3265    0.0000 O   0  0  0  0  0  0  0  0  0  0  0  0
    8.0555   -3.3283    0.0000 N   0  0  0  0  0  0  0  0  0  0  0  0
    9.2011   -2.6651    0.0000 N   0  0  0  0  0  0  0  0  0  0  0  0
   10.2985   -3.4127    0.0000 C   0  0  0  0  0  0  0  0  0  0  0  0
   11.5768   -3.0148    0.0000 C   0  0  0  0  0  0  0  0  0  0  0  0
   12.0591   -1.7848    0.0000 C   0  0  0  0  0  0  0  0  0  0  0  0
   11.3959   -0.6271    0.0000 C   0  0  0  0  0  0  0  0  0  0  0  0
   10.0694   -0.4100    0.0000 C   0  0  0  0  0  0  0  0  0  0  0  0
    9.1288   -1.3506    0.0000 C   0  0  0  0  0  0  0  0  0  0  0  0
  1  2  2  0  0  0  0
  2  3  2  0  0  0  0
  2  4  1  0  0  0  0
  2 11  1  0  0  0  0
  4  5  2  0  0  0  0
  4  9  1  0  0  0  0
  5  6  1  0  0  0  0
  6  7  2  0  0  0  0
  7  8  1  0  0  0  0
  7 10  1  0  0  0  0
  8  9  2  0  0  0  0
 11 12  1  0  0  0  0
 12 13  2  0  0  0  0
 12 14  1  0  0  0  0
 14 15  1  0  0  0  0
 15 16  1  0  0  0  0
 15 21  1  0  0  0  0
 16 17  1  0  0  0  0
 17 18  1  0  0  0  0
 18 19  1  0  0  0  0
 19 20  1  0  0  0  0
 20 21  1  0  0  0  0
M  END
>  <DSSTox_RID>
21358

>  <DSSTox_CID>
1358

>  <DSSTox_Generic_SID>
21358

>  <DSSTox_FileID>
1421_CPDBAS_v5d

>  <STRUCTURE_Formula>
C14H21N3O3S

>  <STRUCTURE_MolecularWeight>
311.3998

>  <STRUCTURE_ChemicalType>
defined organic

>  <STRUCTURE_TestedForm_DefinedOrganic>
parent

>  <STRUCTURE_Shown>
tested chemical

>  <TestSubstance_ChemicalName>
Tolazamide

>  <TestSubstance_CASRN>
1156-19-0

>  <TestSubstance_Description>
single chemical compound

>  <STRUCTURE_ChemicalName_IUPAC>
N-[(azepan-1-ylamino)carbonyl]-4-methylbenzenesulfonamide

>  <STRUCTURE_SMILES>
O=S(=O)(C1=CC=C(C=C1)C)NC(=O)NN2CCCCCC2

>  <STRUCTURE_Parent_SMILES>
O=S(=O)(C1=CC=C(C=C1)C)NC(=O)NN2CCCCCC2

>  <STRUCTURE_InChI>
InChI=1/C14H21N3O3S/c1-12-6-8-13(9-7-12)21(19,20)16-14(18)15-17-10-4-2-3-5-11-17/h6-9H,2-5,10-11H2,1H3,(H2,15,16,18)/f/h15-16H

>  <STRUCTURE_InChIKey>
OUDSBRTVNLOZBN-LUXCBXFACS

>  <StudyType>
Carcinogenicity

>  <Endpoint>
TD50; Tumor Target Sites

>  <Species>
rat; mouse

>  <ActivityOutcome_CPDBAS_Mutagenicity>
inactive

>  <ActivityScore_CPDBAS_Rat>
0

>  <TD50_Rat_Note>
no positive results

>  <TargetSites_Rat_Male>
no positive results

>  <TargetSites_Rat_Female>
no positive results

>  <ActivityOutcome_CPDBAS_Rat>
inactive

>  <ActivityScore_CPDBAS_Mouse>
0

>  <TD50_Mouse_Note>
no positive results

>  <TargetSites_Mouse_Male>
no positive results

>  <TargetSites_Mouse_Female>
no positive results

>  <ActivityOutcome_CPDBAS_Mouse>
inactive

>  <ActivityOutcome_CPDBAS_SingleCellCall>
inactive

>  <ActivityOutcome_CPDBAS_MultiCellCall>
inactive

>  <ActivityOutcome_CPDBAS_MultiCellCall_Details>
multisex inactive; multispecies inactive

>  <NTP_TechnicalReport>
TR 051

>  <ChemicalPage_URL>
http://potency.berkeley.edu/chempages/TOLAZAMIDE.html

$$$$



 18 18  0  0  0  0  0  0  0  0999 V2000
    6.4226    0.0000    0.0000 O   0  0  0  0  0  0  0  0  0  0  0  0
    5.7596   -1.1498    0.0000 S   0  0  0  0  0  0  0  0  0  0  0  0
    5.0862   -2.2997    0.0000 O   0  0  0  0  0  0  0  0  0  0  0  0
    6.9094   -1.8128    0.0000 C   0  0  0  0  0  0  0  0  0  0  0  0
    8.0593   -1.1498    0.0000 C   0  0  0  0  0  0  0  0  0  0  0  0
    9.2091   -1.8128    0.0000 C   0  0  0  0  0  0  0  0  0  0  0  0
    9.2091   -3.1491    0.0000 C   0  0  0  0  0  0  0  0  0  0  0  0
    8.0593   -3.8121    0.0000 C   0  0  0  0  0  0  0  0  0  0  0  0
    6.9094   -3.1491    0.0000 C   0  0  0  0  0  0  0  0  0  0  0  0
   10.3590   -3.8121    0.0000 C   0  0  0  0  0  0  0  0  0  0  0  0
    4.5994   -0.4869    0.0000 N   0  0  0  0  0  0  0  0  0  0  0  0
    3.4495   -1.1498    0.0000 C   0  0  0  0  0  0  0  0  0  0  0  0
    3.4495   -2.4861    0.0000 O   0  0  0  0  0  0  0  0  0  0  0  0
    2.2997   -0.4869    0.0000 N   0  0  0  0  0  0  0  0  0  0  0  0
    1.1498   -1.1498    0.0000 C   0  0  0  0  0  0  0  0  0  0  0  0
    1.1498   -2.4861    0.0000 C   0  0  0  0  0  0  0  0  0  0  0  0
    0.0000   -3.1491    0.0000 C   0  0  0  0  0  0  0  0  0  0  0  0
    0.0000   -4.4751    0.0000 C   0  0  0  0  0  0  0  0  0  0  0  0
  1  2  2  0  0  0  0
  2  3  2  0  0  0  0
  2  4  1  0  0  0  0
  2 11  1  0  0  0  0
  4  5  2  0  0  0  0
  4  9  1  0  0  0  0
  5  6  1  0  0  0  0
  6  7  2  0  0  0  0
  7  8  1  0  0  0  0
  7 10  1  0  0  0  0
  8  9  2  0  0  0  0
 11 12  1  0  0  0  0
 12 13  2  0  0  0  0
 12 14  1  0  0  0  0
 14 15  1  0  0  0  0
 15 16  1  0  0  0  0
 16 17  1  0  0  0  0
 17 18  1  0  0  0  0
M  END
>  <DSSTox_RID>
21359

>  <DSSTox_CID>
1359

>  <DSSTox_Generic_SID>
21359

>  <DSSTox_FileID>
1422_CPDBAS_v5d

>  <STRUCTURE_Formula>
C12H18N2O3S

>  <STRUCTURE_MolecularWeight>
270.3479

>  <STRUCTURE_ChemicalType>
defined organic

>  <STRUCTURE_TestedForm_DefinedOrganic>
parent

>  <STRUCTURE_Shown>
tested chemical

>  <TestSubstance_ChemicalName>
Tolbutamide

>  <TestSubstance_CASRN>
64-77-7

>  <TestSubstance_Description>
single chemical compound

>  <STRUCTURE_ChemicalName_IUPAC>
N-[(butylamino)carbonyl]-4-methylbenzenesulfonamide

>  <STRUCTURE_SMILES>
O=S(=O)(C1=CC=C(C=C1)C)NC(=O)NCCCC

>  <STRUCTURE_Parent_SMILES>
O=S(=O)(C1=CC=C(C=C1)C)NC(=O)NCCCC

>  <STRUCTURE_InChI>
InChI=1/C12H18N2O3S/c1-3-4-9-13-12(15)14-18(16,17)11-7-5-10(2)6-8-11/h5-8H,3-4,9H2,1-2H3,(H2,13,14,15)/f/h13-14H

>  <STRUCTURE_InChIKey>
JLRGJRBPOGGCBT-KGCNKATMCC

>  <StudyType>
Carcinogenicity

>  <Endpoint>
TD50; Tumor Target Sites

>  <Species>
rat; mouse

>  <ActivityOutcome_CPDBAS_Mutagenicity>
inactive

>  <ActivityScore_CPDBAS_Rat>
0

>  <TD50_Rat_Note>
no positive results

>  <TargetSites_Rat_Male>
no positive results

>  <TargetSites_Rat_Female>
no positive results

>  <ActivityOutcome_CPDBAS_Rat>
inactive

>  <ActivityScore_CPDBAS_Mouse>
0

>  <TD50_Mouse_Note>
no positive results

>  <TargetSites_Mouse_Male>
no positive results

>  <TargetSites_Mouse_Female>
no positive results

>  <ActivityOutcome_CPDBAS_Mouse>
inactive

>  <ActivityOutcome_CPDBAS_SingleCellCall>
inactive

>  <ActivityOutcome_CPDBAS_MultiCellCall>
inactive

>  <ActivityOutcome_CPDBAS_MultiCellCall_Details>
multisex inactive; multispecies inactive

>  <NTP_TechnicalReport>
TR 31

>  <ChemicalPage_URL>
http://potency.berkeley.edu/chempages/TOLBUTAMIDE.html

$$$$



  7  7  0  0  0  0  0  0  0  0999 V2000
    0.0000   -1.1496    0.0000 C   0  0  0  0  0  0  0  0  0  0  0  0
    1.3292   -1.1496    0.0000 C   0  0  0  0  0  0  0  0  0  0  0  0
    1.9958    0.0000    0.0000 C   0  0  0  0  0  0  0  0  0  0  0  0
    3.3250    0.0000    0.0000 C   0  0  0  0  0  0  0  0  0  0  0  0
    3.9916   -1.1496    0.0000 C   0  0  0  0  0  0  0  0  0  0  0  0
    3.3250   -2.3032    0.0000 C   0  0  0  0  0  0  0  0  0  0  0  0
    1.9958   -2.3032    0.0000 C   0  0  0  0  0  0  0  0  0  0  0  0
  1  2  1  0  0  0  0
  2  3  2  0  0  0  0
  2  7  1  0  0  0  0
  3  4  1  0  0  0  0
  4  5  2  0  0  0  0
  5  6  1  0  0  0  0
  6  7  2  0  0  0  0
M  END
>  <DSSTox_RID>
21360

>  <DSSTox_CID>
1360

>  <DSSTox_Generic_SID>
21360

>  <DSSTox_FileID>
1423_CPDBAS_v5d

>  <STRUCTURE_Formula>
C7H8

>  <STRUCTURE_MolecularWeight>
92.1384

>  <STRUCTURE_ChemicalType>
defined organic

>  <STRUCTURE_TestedForm_DefinedOrganic>
parent

>  <STRUCTURE_Shown>
tested chemical

>  <TestSubstance_ChemicalName>
Toluene

>  <TestSubstance_CASRN>
108-88-3

>  <TestSubstance_Description>
single chemical compound

>  <STRUCTURE_ChemicalName_IUPAC>
toluene

>  <STRUCTURE_SMILES>
CC1=CC=CC=C1

>  <STRUCTURE_Parent_SMILES>
CC1=CC=CC=C1

>  <STRUCTURE_InChI>
InChI=1/C7H8/c1-7-5-3-2-4-6-7/h2-6H,1H3

>  <STRUCTURE_InChIKey>
YXFVVABEGXRONW-UHFFFAOYAT

>  <StudyType>
Carcinogenicity

>  <Endpoint>
TD50; Tumor Target Sites

>  <Species>
rat; mouse

>  <ActivityOutcome_CPDBAS_Mutagenicity>
inactive

>  <TD50_Rat_mg>
3060

>  <TD50_Rat_mmol>
33.2

>  <ActivityScore_CPDBAS_Rat>
10

>  <TD50_Rat_Note>
TD50 is harmonic mean of more than one positive test

>  <TargetSites_Rat_Male>
oral cavity; Maltoni head cancers

>  <TargetSites_Rat_Female>
Maltoni head cancers

>  <ActivityOutcome_CPDBAS_Rat>
active

>  <ActivityScore_CPDBAS_Mouse>
0

>  <TD50_Mouse_Note>
no positive results

>  <TargetSites_Mouse_Male>
no positive results

>  <TargetSites_Mouse_Female>
no positive results

>  <ActivityOutcome_CPDBAS_Mouse>
inactive

>  <ActivityOutcome_CPDBAS_SingleCellCall>
active

>  <ActivityOutcome_CPDBAS_MultiCellCall>
active

>  <ActivityOutcome_CPDBAS_MultiCellCall_Details>
multisite active; multisex active

>  <NTP_TechnicalReport>
TR 375; final call in CPDB differs due to additional data

>  <ChemicalPage_URL>
http://potency.berkeley.edu/chempages/TOLUENE.html

$$$$



 11 11  0  0  0  0  0  0  0  0999 V2000
    2.6588    0.0000    0.0000 C   0  0  0  0  0  0  0  0  0  0  0  0
    1.9941   -1.1486    0.0000 C   0  0  0  0  0  0  0  0  0  0  0  0
    2.6588   -2.3025    0.0000 C   0  0  0  0  0  0  0  0  0  0  0  0
    1.9941   -3.4564    0.0000 C   0  0  0  0  0  0  0  0  0  0  0  0
    0.6647   -3.4564    0.0000 C   0  0  0  0  0  0  0  0  0  0  0  0
    0.0000   -2.3025    0.0000 C   0  0  0  0  0  0  0  0  0  0  0  0
    0.6647   -1.1486    0.0000 C   0  0  0  0  0  0  0  0  0  0  0  0
    3.9882   -2.3025    0.0000 S   0  0  0  0  0  0  0  0  0  0  0  0
    3.9882   -0.9731    0.0000 O   0  0  0  0  0  0  0  0  0  0  0  0
    3.9882   -3.6319    0.0000 O   0  0  0  0  0  0  0  0  0  0  0  0
    5.3175   -2.3025    0.0000 N   0  0  0  0  0  0  0  0  0  0  0  0
  1  2  1  0  0  0  0
  2  3  2  0  0  0  0
  2  7  1  0  0  0  0
  3  4  1  0  0  0  0
  3  8  1  0  0  0  0
  4  5  2  0  0  0  0
  5  6  1  0  0  0  0
  6  7  2  0  0  0  0
  8  9  2  0  0  0  0
  8 10  2  0  0  0  0
  8 11  1  0  0  0  0
M  END
>  <DSSTox_RID>
21362

>  <DSSTox_CID>
1362

>  <DSSTox_Generic_SID>
21362

>  <DSSTox_FileID>
1425_CPDBAS_v5d

>  <STRUCTURE_Formula>
C7H9NO2S

>  <STRUCTURE_MolecularWeight>
171.2136

>  <STRUCTURE_ChemicalType>
defined organic

>  <STRUCTURE_TestedForm_DefinedOrganic>
parent

>  <STRUCTURE_Shown>
tested chemical

>  <TestSubstance_ChemicalName>
o-Toluenesulfonamide

>  <TestSubstance_CASRN>
88-19-7

>  <TestSubstance_Description>
single chemical compound

>  <STRUCTURE_ChemicalName_IUPAC>
2-methylbenzenesulfonamide

>  <STRUCTURE_SMILES>
CC1=C(C=CC=C1)S(=O)(=O)N

>  <STRUCTURE_Parent_SMILES>
CC1=C(C=CC=C1)S(=O)(=O)N

>  <STRUCTURE_InChI>
InChI=1/C7H9NO2S/c1-6-4-2-3-5-7(6)11(8,9)10/h2-5H,1H3,(H2,8,9,10)/f/h8H2

>  <STRUCTURE_InChIKey>
YCMLQMDWSXFTIF-FSHFIPFOCM

>  <StudyType>
Carcinogenicity

>  <Endpoint>
TD50; Tumor Target Sites

>  <Species>
rat

>  <ActivityOutcome_CPDBAS_Mutagenicity>
inactive

>  <TD50_Rat_mg>
3960

>  <TD50_Rat_mmol>
23.1

>  <ActivityScore_CPDBAS_Rat>
12

>  <TargetSites_Rat_BothSexes>
urinary bladder

>  <ActivityOutcome_CPDBAS_Rat>
active

>  <ActivityOutcome_CPDBAS_SingleCellCall>
active

>  <ChemicalPage_URL>
http://potency.berkeley.edu/chempages/o-TOLUENESULFONAMIDE.html

$$$$



 11 11  0  0  0  0  0  0  0  0999 V2000
    0.0000   -2.6601    0.0000 N   0  0  0  0  0  0  0  0  0  0  0  0
    1.1539   -1.9968    0.0000 C   0  0  0  0  0  0  0  0  0  0  0  0
    1.1539   -0.6633    0.0000 O   0  0  0  0  0  0  0  0  0  0  0  0
    2.3008   -2.6601    0.0000 N   0  0  0  0  0  0  0  0  0  0  0  0
    3.4547   -1.9968    0.0000 C   0  0  0  0  0  0  0  0  0  0  0  0
    3.4547   -0.6633    0.0000 C   0  0  0  0  0  0  0  0  0  0  0  0
    4.6086    0.0000    0.0000 C   0  0  0  0  0  0  0  0  0  0  0  0
    5.7555   -0.6633    0.0000 C   0  0  0  0  0  0  0  0  0  0  0  0
    5.7555   -1.9968    0.0000 C   0  0  0  0  0  0  0  0  0  0  0  0
    4.6086   -2.6601    0.0000 C   0  0  0  0  0  0  0  0  0  0  0  0
    6.9094    0.0000    0.0000 C   0  0  0  0  0  0  0  0  0  0  0  0
  1  2  1  0  0  0  0
  2  3  2  0  0  0  0
  2  4  1  0  0  0  0
  4  5  1  0  0  0  0
  5  6  2  0  0  0  0
  5 10  1  0  0  0  0
  6  7  1  0  0  0  0
  7  8  2  0  0  0  0
  8  9  1  0  0  0  0
  8 11  1  0  0  0  0
  9 10  2  0  0  0  0
M  END
>  <DSSTox_RID>
21366

>  <DSSTox_CID>
1366

>  <DSSTox_Generic_SID>
21366

>  <DSSTox_FileID>
1429_CPDBAS_v5d

>  <STRUCTURE_Formula>
C8H10N2O

>  <STRUCTURE_MolecularWeight>
150.1778

>  <STRUCTURE_ChemicalType>
defined organic

>  <STRUCTURE_TestedForm_DefinedOrganic>
parent

>  <STRUCTURE_Shown>
tested chemical

>  <TestSubstance_ChemicalName>
p-Tolylurea

>  <TestSubstance_CASRN>
622-51-5

>  <TestSubstance_Description>
single chemical compound

>  <STRUCTURE_ChemicalName_IUPAC>
1-(4-methylphenyl)urea

>  <STRUCTURE_SMILES>
NC(=O)NC1=CC=C(C=C1)C

>  <STRUCTURE_Parent_SMILES>
NC(=O)NC1=CC=C(C=C1)C

>  <STRUCTURE_InChI>
InChI=1/C8H10N2O/c1-6-2-4-7(5-3-6)10-8(9)11/h2-5H,1H3,(H3,9,10,11)/f/h10H,9H2

>  <STRUCTURE_InChIKey>
DMSHKWHLXNDUST-ACESRIFFCM

>  <StudyType>
Carcinogenicity

>  <Endpoint>
TD50; Tumor Target Sites

>  <Species>
rat; mouse

>  <ActivityOutcome_CPDBAS_Mutagenicity>
inactive

>  <ActivityScore_CPDBAS_Rat>
0

>  <TD50_Rat_Note>
no positive results

>  <TargetSites_Rat_Male>
no positive results

>  <TargetSites_Rat_Female>
no positive results

>  <ActivityOutcome_CPDBAS_Rat>
inactive

>  <TD50_Mouse_mg>
206

>  <TD50_Mouse_mmol>
1.37

>  <ActivityScore_CPDBAS_Mouse>
27

>  <TargetSites_Mouse_Male>
hematopoietic system

>  <TargetSites_Mouse_Female>
no positive results

>  <ActivityOutcome_CPDBAS_Mouse>
active

>  <ActivityOutcome_CPDBAS_SingleCellCall>
active

>  <ChemicalPage_URL>
http://potency.berkeley.edu/chempages/p-TOLYLUREA.html

$$$$



 17 20  0  0  0  0  0  0  0  0999 V2000
    7.2655   -5.1440    0.0000 C   0  0  0  0  0  0  0  0  0  0  0  0
    6.5971   -6.2919    0.0000 C   0  0  0  0  0  0  0  0  0  0  0  0
    5.9359   -5.1440    0.0000 N   0  0  0  0  0  0  0  0  0  0  0  0
    4.7807   -4.4756    0.0000 C   0  0  0  0  0  0  0  0  0  0  0  0
    3.6328   -5.1440    0.0000 C   0  0  0  0  0  0  0  0  0  0  0  0
    2.4848   -4.4756    0.0000 C   0  0  0  0  0  0  0  0  0  0  0  0
    1.3296   -5.1440    0.0000 O   0  0  0  0  0  0  0  0  0  0  0  0
    2.4848   -3.1460    0.0000 C   0  0  0  0  0  0  0  0  0  0  0  0
    1.3296   -2.4775    0.0000 N   0  0  0  0  0  0  0  0  0  0  0  0
    0.0000   -2.4775    0.0000 C   0  0  0  0  0  0  0  0  0  0  0  0
    0.6684   -1.3296    0.0000 C   0  0  0  0  0  0  0  0  0  0  0  0
    4.7807   -3.1460    0.0000 C   0  0  0  0  0  0  0  0  0  0  0  0
    5.9359   -2.4775    0.0000 O   0  0  0  0  0  0  0  0  0  0  0  0
    3.6328   -2.4775    0.0000 C   0  0  0  0  0  0  0  0  0  0  0  0
    3.6328   -1.1480    0.0000 N   0  0  0  0  0  0  0  0  0  0  0  0
    2.9643    0.0000    0.0000 C   0  0  0  0  0  0  0  0  0  0  0  0
    4.3012    0.0000    0.0000 C   0  0  0  0  0  0  0  0  0  0  0  0
  1  2  1  0  0  0  0
  1  3  1  0  0  0  0
  2  3  1  0  0  0  0
  3  4  1  0  0  0  0
  4  5  2  0  0  0  0
  4 12  1  0  0  0  0
  5  6  1  0  0  0  0
  6  7  2  0  0  0  0
  6  8  1  0  0  0  0
  8  9  1  0  0  0  0
  8 14  2  0  0  0  0
  9 10  1  0  0  0  0
  9 11  1  0  0  0  0
 10 11  1  0  0  0  0
 12 13  2  0  0  0  0
 12 14  1  0  0  0  0
 14 15  1  0  0  0  0
 15 16  1  0  0  0  0
 15 17  1  0  0  0  0
 16 17  1  0  0  0  0
M  END
>  <DSSTox_RID>
21370

>  <DSSTox_CID>
1370

>  <DSSTox_Generic_SID>
21370

>  <DSSTox_FileID>
1433_CPDBAS_v5d

>  <STRUCTURE_Formula>
C12H13N3O2

>  <STRUCTURE_MolecularWeight>
231.2536

>  <STRUCTURE_ChemicalType>
defined organic

>  <STRUCTURE_TestedForm_DefinedOrganic>
parent

>  <STRUCTURE_Shown>
tested chemical

>  <TestSubstance_ChemicalName>
Trenimon

>  <TestSubstance_CASRN>
68-76-8

>  <TestSubstance_Description>
single chemical compound

>  <STRUCTURE_ChemicalName_IUPAC>
2,3,5-tris(aziridin-1-yl)cyclohexa-2,5-diene-1,4-dione

>  <STRUCTURE_SMILES>
C(C1)N1C(=CC(=O)C=2N(C3)C3)C(=O)C=2N(C4)C4

>  <STRUCTURE_Parent_SMILES>
C(C1)N1C(=CC(=O)C=2N(C3)C3)C(=O)C=2N(C4)C4

>  <STRUCTURE_InChI>
InChI=1/C12H13N3O2/c16-9-7-8(13-1-2-13)12(17)11(15-5-6-15)10(9)14-3-4-14/h7H,1-6H2

>  <STRUCTURE_InChIKey>
PXSOHRWMIRDKMP-UHFFFAOYAG

>  <StudyType>
Carcinogenicity

>  <Endpoint>
TD50; Tumor Target Sites

>  <Species>
rat

>  <TD50_Rat_mg>
0.00504

>  <TD50_Rat_mmol>
0.0000218

>  <ActivityScore_CPDBAS_Rat>
74

>  <TD50_Rat_Note>
positive test results only by intraperitoneal or intravenous injection

>  <TargetSites_Rat_Male>
all tumor bearing animals

>  <ActivityOutcome_CPDBAS_Rat>
active

>  <ActivityOutcome_CPDBAS_SingleCellCall>
active

>  <ChemicalPage_URL>
http://potency.berkeley.edu/chempages/TRENIMON.html

$$$$



 33 37  0  0  1  0  0  0  0  0999 V2000
    8.2043   -2.0076    0.0000 C   0  0  1  0  0  0  0  0  0  0  0  0
    6.9395   -2.4253    0.0000 C   0  0  2  0  0  0  0  0  0  0  0  0
    4.6650   -3.7366    0.0000 C   0  0  2  0  0  0  0  0  0  0  0  0
    3.4929   -4.3981    0.0000 C   0  0  2  0  0  0  0  0  0  0  0  0
    6.9395   -3.7366    0.0000 C   0  0  2  0  0  0  0  0  0  0  0  0
    5.7790   -4.4097    0.0000 C   0  0  2  0  0  0  0  0  0  0  0  0
    8.9934   -3.0984    0.0000 C   0  0  2  0  0  0  0  0  0  0  0  0
    3.4929   -5.7442    0.0000 C   0  0  0  0  0  0  0  0  0  0  0  0
    9.0050   -0.9516    0.0000 O   0  0  0  0  0  0  0  0  0  0  0  0
    4.6650   -2.4253    0.0000 C   0  0  2  0  0  0  0  0  0  0  0  0
    5.7790   -1.7639    0.0000 C   0  0  0  0  0  0  0  0  0  0  0  0
   10.2583   -1.3577    0.0000 C   0  0  0  0  0  0  0  0  0  0  0  0
   10.2583   -2.6922    0.0000 O   0  0  0  0  0  0  0  0  0  0  0  0
    2.3325   -3.7366    0.0000 C   0  0  0  0  0  0  0  0  0  0  0  0
    8.2043   -4.1428    0.0000 C   0  0  0  0  0  0  0  0  0  0  0  0
    8.2043   -0.6731    0.0000 C   0  0  0  0  0  0  0  0  0  0  0  0
    2.3325   -6.4289    0.0000 C   0  0  0  0  0  0  0  0  0  0  0  0
    5.7790   -5.7442    0.0000 C   0  0  0  0  0  0  0  0  0  0  0  0
    1.1720   -4.4097    0.0000 C   0  0  0  0  0  0  0  0  0  0  0  0
    1.1720   -5.7326    0.0000 C   0  0  0  0  0  0  0  0  0  0  0  0
    4.6650   -6.4289    0.0000 C   0  0  0  0  0  0  0  0  0  0  0  0
    4.6766   -5.0131    0.0000 F   0  0  0  0  0  0  0  0  0  0  0  0
    9.3880    0.0000    0.0000 O   0  0  0  0  0  0  0  0  0  0  0  0
    0.0000   -6.4173    0.0000 O   0  0  0  0  0  0  0  0  0  0  0  0
    6.9395   -1.0676    0.0000 C   0  0  0  0  0  0  0  0  0  0  0  0
    3.4929   -1.7523    0.0000 O   0  0  0  0  0  0  0  0  0  0  0  0
    3.4929   -3.0752    0.0000 C   0  0  0  0  0  0  0  0  0  0  0  0
    7.0671    0.0000    0.0000 C   0  0  0  0  0  0  0  0  0  0  0  0
   11.6044   -1.3577    0.0000 C   0  0  0  0  0  0  0  0  0  0  0  0
   10.6065   -0.0580    0.0000 C   0  0  0  0  0  0  0  0  0  0  0  0
    5.9067   -0.7079    0.0000 O   0  0  0  0  0  0  0  0  0  0  0  0
    5.7790   -3.1796    0.0000 H   0  0  0  0  0  0  0  0  0  0  0  0
    6.9395   -5.0711    0.0000 H   0  0  0  0  0  0  0  0  0  0  0  0
  1  2  1  0  0  0  0
  1  7  1  0  0  0  0
  1  9  1  6  0  0  0
  1 16  1  1  0  0  0
  2  5  1  0  0  0  0
  2 11  1  0  0  0  0
  2 25  1  1  0  0  0
  3 10  1  0  0  0  0
  3  4  1  0  0  0  0
  3 22  1  6  0  0  0
  3  6  1  0  0  0  0
  4  8  1  0  0  0  0
  4 14  1  0  0  0  0
  4 27  1  1  0  0  0
  5  6  1  0  0  0  0
  5 15  1  0  0  0  0
  5 33  1  6  0  0  0
  6 18  1  0  0  0  0
  6 32  1  1  0  0  0
  7 13  1  6  0  0  0
  7 15  1  0  0  0  0
  8 17  2  0  0  0  0
  8 21  1  0  0  0  0
  9 12  1  0  0  0  0
 10 11  1  0  0  0  0
 10 26  1  1  0  0  0
 12 29  1  0  0  0  0
 12 30  1  0  0  0  0
 12 13  1  0  0  0  0
 14 19  2  0  0  0  0
 16 23  2  0  0  0  0
 16 28  1  0  0  0  0
 17 20  1  0  0  0  0
 18 21  1  0  0  0  0
 19 20  1  0  0  0  0
 20 24  2  0  0  0  0
 28 31  1  0  0  0  0
M  END
>  <DSSTox_RID>
21371

>  <DSSTox_CID>
1371

>  <DSSTox_Generic_SID>
21371

>  <DSSTox_FileID>
1434_CPDBAS_v5d

>  <STRUCTURE_Formula>
C24H31FO6

>  <STRUCTURE_MolecularWeight>
434.4977

>  <STRUCTURE_ChemicalType>
defined organic

>  <STRUCTURE_TestedForm_DefinedOrganic>
parent

>  <STRUCTURE_Shown>
tested chemical

>  <TestSubstance_ChemicalName>
Triamcinolone acetonide

>  <TestSubstance_CASRN>
76-25-5

>  <TestSubstance_Description>
single chemical compound

>  <ChemicalNote>
stereochem

>  <STRUCTURE_ChemicalName_IUPAC>
(4aS,4bR,5S,6aS,6bS,9aR,10aS,10bS)-4b-fluoro-5-hydroxy-6b-(hydroxyacetyl)-4a,6a,8,8-tetramethyl-4a,4b,5,6,6a,6b,9a,10,10a,10b,11,12-dodecahydro-2H-naphtho[2',1':4,5]indeno[1,2-d][1,3]dioxol-2-one

>  <STRUCTURE_SMILES>
F[C@@]([C@](C=C4)(C)C3=CC4=O)2[C@@H](O)C[C@]([C@](C5)([H])[C@@]([H])2CC3)(C)[C@@]1([C@](CO)=O)[C@@H]5OC(C)(C)O1

>  <STRUCTURE_Parent_SMILES>
F[C@@]([C@](C=C4)(C)C3=CC4=O)2[C@@H](O)C[C@]([C@](C5)([H])[C@@]([H])2CC3)(C)[C@@]1([C@](CO)=O)[C@@H]5OC(C)(C)O1

>  <STRUCTURE_InChI>
InChI=1/C24H31FO6/c1-20(2)30-19-10-16-15-6-5-13-9-14(27)7-8-21(13,3)23(15,25)17(28)11-22(16,4)24(19,31-20)18(29)12-26/h7-9,15-17,19,26,28H,5-6,10-12H2,1-4H3/t15-,16-,17-,19+,21-,22-,23-,24+/m0/s1

>  <STRUCTURE_InChIKey>
YNDXUCZADRHECN-JNQJZLCIBL

>  <StudyType>
Carcinogenicity

>  <Endpoint>
TD50; Tumor Target Sites

>  <Species>
rat

>  <TD50_Rat_mg>
0.053

>  <TD50_Rat_mmol>
0.000122

>  <ActivityScore_CPDBAS_Rat>
66

>  <TargetSites_Rat_Male>
liver

>  <ActivityOutcome_CPDBAS_Rat>
active

>  <ActivityOutcome_CPDBAS_SingleCellCall>
active

>  <ChemicalPage_URL>
http://potency.berkeley.edu/chempages/TRIAMCINOLONE%20ACETONIDE.html

$$$$



 16 17  0  0  0  0  0  0  0  0999 V2000
    8.0361   -2.0205    0.0000 C   0  0  0  0  0  0  0  0  0  0  0  0
    6.8881   -2.7093    0.0000 C   0  0  0  0  0  0  0  0  0  0  0  0
    5.7400   -2.0205    0.0000 C   0  0  0  0  0  0  0  0  0  0  0  0
    5.7400   -0.6888    0.0000 C   0  0  0  0  0  0  0  0  0  0  0  0
    6.8881    0.0000    0.0000 C   0  0  0  0  0  0  0  0  0  0  0  0
    8.0361   -0.6888    0.0000 C   0  0  0  0  0  0  0  0  0  0  0  0
    9.1841   -2.6634    0.0000 N   0  0  0  0  0  0  0  0  0  0  0  0
    9.1841   -0.0459    0.0000 N   0  0  0  0  0  0  0  0  0  0  0  0
    4.5920   -0.0459    0.0000 O   0  0  0  0  0  0  0  0  0  0  0  0
    3.4440   -0.7347    0.0000 C   0  0  0  0  0  0  0  0  0  0  0  0
    2.2501   -0.0459    0.0000 C   0  0  0  0  0  0  0  0  0  0  0  0
    3.4440   -2.0205    0.0000 C   0  0  0  0  0  0  0  0  0  0  0  0
    1.1021   -0.7347    0.0000 C   0  0  0  0  0  0  0  0  0  0  0  0
    2.2960   -2.7093    0.0000 C   0  0  0  0  0  0  0  0  0  0  0  0
    1.1021   -2.0664    0.0000 C   0  0  0  0  0  0  0  0  0  0  0  0
    0.0000   -2.7093    0.0000 N   0  0  0  0  0  0  0  0  0  0  0  0
  1  2  2  0  0  0  0
  1  6  1  0  0  0  0
  1  7  1  0  0  0  0
  2  3  1  0  0  0  0
  3  4  2  0  0  0  0
  4  5  1  0  0  0  0
  4  9  1  0  0  0  0
  5  6  2  0  0  0  0
  6  8  1  0  0  0  0
  9 10  1  0  0  0  0
 10 11  2  0  0  0  0
 10 12  1  0  0  0  0
 11 13  1  0  0  0  0
 12 14  2  0  0  0  0
 13 15  2  0  0  0  0
 14 15  1  0  0  0  0
 15 16  1  0  0  0  0
M  END
>  <DSSTox_RID>
21372

>  <DSSTox_CID>
1372

>  <DSSTox_Generic_SID>
21372

>  <DSSTox_FileID>
1435_CPDBAS_v5d

>  <STRUCTURE_Formula>
C12H13N3O

>  <STRUCTURE_MolecularWeight>
215.2511

>  <STRUCTURE_ChemicalType>
defined organic

>  <STRUCTURE_TestedForm_DefinedOrganic>
parent

>  <STRUCTURE_Shown>
tested chemical

>  <TestSubstance_ChemicalName>
3,4,4'-Triaminodiphenyl ether

>  <TestSubstance_CASRN>
6264-66-0

>  <TestSubstance_Description>
single chemical compound

>  <STRUCTURE_ChemicalName_IUPAC>
4-[(4-aminophenyl)oxy]benzene-1,2-diamine

>  <STRUCTURE_SMILES>
NC1=CC=C(OC2=CC=C(N)C=C2)C=C1N

>  <STRUCTURE_Parent_SMILES>
NC1=CC=C(OC2=CC=C(N)C=C2)C=C1N

>  <STRUCTURE_InChI>
InChI=1/C12H13N3O/c13-8-1-3-9(4-2-8)16-10-5-6-11(14)12(15)7-10/h1-7H,13-15H2

>  <STRUCTURE_InChIKey>
MPKIJEUTPZPJFP-UHFFFAOYAQ

>  <StudyType>
Carcinogenicity

>  <Endpoint>
TD50; Tumor Target Sites

>  <Species>
mouse

>  <TD50_Mouse_mg>
13.3

>  <TD50_Mouse_mmol>
0.0618

>  <ActivityScore_CPDBAS_Mouse>
42

>  <TargetSites_Mouse_Male>
liver

>  <ActivityOutcome_CPDBAS_Mouse>
active

>  <ActivityOutcome_CPDBAS_SingleCellCall>
active

>  <Note_CPDBAS>
Mouse added v3a; chemical added v3a

>  <ChemicalPage_URL>
http://potency.berkeley.edu/chempages/3,4,4'-TRIAMINODIPHENYL%20ETHER.html

$$$$



 19 21  0  0  0  0  0  0  0  0999 V2000
    6.9115   -0.6635    0.0000 N   0  0  0  0  0  0  0  0  0  0  0  0
    6.9115   -1.9905    0.0000 C   0  0  0  0  0  0  0  0  0  0  0  0
    5.7596   -2.6540    0.0000 C   0  0  0  0  0  0  0  0  0  0  0  0
    5.7596   -3.9903    0.0000 C   0  0  0  0  0  0  0  0  0  0  0  0
    6.9115   -4.6538    0.0000 N   0  0  0  0  0  0  0  0  0  0  0  0
    8.0635   -3.9903    0.0000 C   0  0  0  0  0  0  0  0  0  0  0  0
    8.0635   -2.6540    0.0000 N   0  0  0  0  0  0  0  0  0  0  0  0
    9.2154   -4.6538    0.0000 N   0  0  0  0  0  0  0  0  0  0  0  0
    4.6077   -4.6538    0.0000 N   0  0  0  0  0  0  0  0  0  0  0  0
    3.4558   -3.9903    0.0000 C   0  0  0  0  0  0  0  0  0  0  0  0
    3.4558   -2.6540    0.0000 C   0  0  0  0  0  0  0  0  0  0  0  0
    4.6077   -1.9905    0.0000 N   0  0  0  0  0  0  0  0  0  0  0  0
    2.3038   -1.9905    0.0000 C   0  0  0  0  0  0  0  0  0  0  0  0
    1.1519   -2.6540    0.0000 C   0  0  0  0  0  0  0  0  0  0  0  0
    0.0000   -1.9905    0.0000 C   0  0  0  0  0  0  0  0  0  0  0  0
    0.0000   -0.6635    0.0000 C   0  0  0  0  0  0  0  0  0  0  0  0
    1.1519    0.0000    0.0000 C   0  0  0  0  0  0  0  0  0  0  0  0
    2.3038   -0.6635    0.0000 C   0  0  0  0  0  0  0  0  0  0  0  0
    2.3038   -4.6538    0.0000 N   0  0  0  0  0  0  0  0  0  0  0  0
  1  2  1  0  0  0  0
  2  3  2  0  0  0  0
  2  7  1  0  0  0  0
  3  4  1  0  0  0  0
  3 12  1  0  0  0  0
  4  5  2  0  0  0  0
  4  9  1  0  0  0  0
  5  6  1  0  0  0  0
  6  7  2  0  0  0  0
  6  8  1  0  0  0  0
  9 10  2  0  0  0  0
 10 11  1  0  0  0  0
 10 19  1  0  0  0  0
 11 12  2  0  0  0  0
 11 13  1  0  0  0  0
 13 14  2  0  0  0  0
 13 18  1  0  0  0  0
 14 15  1  0  0  0  0
 15 16  2  0  0  0  0
 16 17  1  0  0  0  0
 17 18  2  0  0  0  0
M  END
>  <DSSTox_RID>
21373

>  <DSSTox_CID>
1373

>  <DSSTox_Generic_SID>
21373

>  <DSSTox_FileID>
1436_CPDBAS_v5d

>  <STRUCTURE_Formula>
C12H11N7

>  <STRUCTURE_MolecularWeight>
253.2626

>  <STRUCTURE_ChemicalType>
defined organic

>  <STRUCTURE_TestedForm_DefinedOrganic>
parent

>  <STRUCTURE_Shown>
tested chemical

>  <TestSubstance_ChemicalName>
Triamterene

>  <TestSubstance_CASRN>
396-01-0

>  <TestSubstance_Description>
single chemical compound

>  <STRUCTURE_ChemicalName_IUPAC>
6-phenylpteridine-2,4,7-triamine

>  <STRUCTURE_SMILES>
NC1=C2C(=NC(=N1)N)N=C(C(=N2)C3=CC=CC=C3)N

>  <STRUCTURE_Parent_SMILES>
NC1=C2C(=NC(=N1)N)N=C(C(=N2)C3=CC=CC=C3)N

>  <STRUCTURE_InChI>
InChI=1/C12H11N7/c13-9-7(6-4-2-1-3-5-6)16-8-10(14)18-12(15)19-11(8)17-9/h1-5H,(H6,13,14,15,17,18,19)/f/h13-15H2

>  <STRUCTURE_InChIKey>
FNYLWPVRPXGIIP-VLYIBAHHCJ

>  <StudyType>
Carcinogenicity

>  <Endpoint>
TD50; Tumor Target Sites

>  <Species>
rat; mouse

>  <ActivityOutcome_CPDBAS_Mutagenicity>
inactive

>  <ActivityScore_CPDBAS_Rat>
0

>  <TD50_Rat_Note>
no positive results

>  <TargetSites_Rat_Male>
no positive results

>  <TargetSites_Rat_Female>
no positive results

>  <ActivityOutcome_CPDBAS_Rat>
inactive

>  <TD50_Mouse_mg>
60.2

>  <TD50_Mouse_mmol>
0.238

>  <ActivityScore_CPDBAS_Mouse>
35

>  <TD50_Mouse_Note>
TD50 is harmonic mean of more than one positive test

>  <TargetSites_Mouse_Male>
liver

>  <TargetSites_Mouse_Female>
liver

>  <ActivityOutcome_CPDBAS_Mouse>
active

>  <ActivityOutcome_CPDBAS_SingleCellCall>
active

>  <ActivityOutcome_CPDBAS_MultiCellCall>
active

>  <ActivityOutcome_CPDBAS_MultiCellCall_Details>
multisex active

>  <NTP_TechnicalReport>
TR 420

>  <ChemicalPage_URL>
http://potency.berkeley.edu/chempages/TRIAMTERENE.html

$$$$



  4  3  0  0  0  0  0  0  0  0999 V2000
    1.3292   -1.1518    0.0000 C   0  0  0  0  0  0  0  0  0  0  0  0
    1.9950    0.0000    0.0000 Br  0  0  0  0  0  0  0  0  0  0  0  0
    1.9950   -2.3037    0.0000 Br  0  0  0  0  0  0  0  0  0  0  0  0
    0.0000   -1.1518    0.0000 Br  0  0  0  0  0  0  0  0  0  0  0  0
  1  2  1  0  0  0  0
  1  3  1  0  0  0  0
  1  4  1  0  0  0  0
M  END
>  <DSSTox_RID>
21374

>  <DSSTox_CID>
1374

>  <DSSTox_Generic_SID>
21374

>  <DSSTox_FileID>
1437_CPDBAS_v5d

>  <STRUCTURE_Formula>
CHBr3

>  <STRUCTURE_MolecularWeight>
252.7306

>  <STRUCTURE_ChemicalType>
defined organic

>  <STRUCTURE_TestedForm_DefinedOrganic>
parent

>  <STRUCTURE_Shown>
tested chemical

>  <TestSubstance_ChemicalName>
Tribromomethane

>  <TestSubstance_CASRN>
75-25-2

>  <TestSubstance_Description>
single chemical compound

>  <STRUCTURE_ChemicalName_IUPAC>
bromoform

>  <STRUCTURE_SMILES>
BrC(Br)Br

>  <STRUCTURE_Parent_SMILES>
BrC(Br)Br

>  <STRUCTURE_InChI>
InChI=1/CHBr3/c2-1(3)4/h1H

>  <STRUCTURE_InChIKey>
DIKBFYAXUHHXCS-UHFFFAOYAM

>  <StudyType>
Carcinogenicity

>  <Endpoint>
TD50; Tumor Target Sites

>  <Species>
rat; mouse

>  <ActivityOutcome_CPDBAS_Mutagenicity>
active

>  <TD50_Rat_mg>
648

>  <TD50_Rat_mmol>
2.56

>  <ActivityScore_CPDBAS_Rat>
21

>  <TD50_Rat_Note>
TD50 is harmonic mean of more than one positive test

>  <TargetSites_Rat_Male>
large intestine

>  <TargetSites_Rat_Female>
large intestine

>  <ActivityOutcome_CPDBAS_Rat>
active

>  <ActivityScore_CPDBAS_Mouse>
0

>  <TD50_Mouse_Note>
no positive results

>  <TargetSites_Mouse_Male>
no positive results

>  <TargetSites_Mouse_Female>
no positive results

>  <ActivityOutcome_CPDBAS_Mouse>
inactive

>  <ActivityOutcome_CPDBAS_SingleCellCall>
active

>  <ActivityOutcome_CPDBAS_MultiCellCall>
active

>  <ActivityOutcome_CPDBAS_MultiCellCall_Details>
multisex active

>  <NTP_TechnicalReport>
TR 350

>  <ChemicalPage_URL>
http://potency.berkeley.edu/chempages/TRIBROMOMETHANE.html

$$$$



 17 16  0  0  0  0  0  0  0  0999 V2000
    9.9273   -3.3256    0.0000 C   0  0  0  0  0  0  0  0  0  0  0  0
    8.7757   -3.9908    0.0000 C   0  0  0  0  0  0  0  0  0  0  0  0
    7.6241   -3.3256    0.0000 C   0  0  0  0  0  0  0  0  0  0  0  0
    6.4726   -3.9908    0.0000 C   0  0  0  0  0  0  0  0  0  0  0  0
    5.3210   -3.3256    0.0000 O   0  0  0  0  0  0  0  0  0  0  0  0
    5.3210   -1.9954    0.0000 P   0  0  0  0  0  0  0  0  0  0  0  0
    6.6513   -1.9954    0.0000 O   0  0  0  0  0  0  0  0  0  0  0  0
    3.9908   -1.9954    0.0000 O   0  0  0  0  0  0  0  0  0  0  0  0
    3.3256   -3.1469    0.0000 C   0  0  0  0  0  0  0  0  0  0  0  0
    1.9954   -3.1469    0.0000 C   0  0  0  0  0  0  0  0  0  0  0  0
    1.3303   -4.2985    0.0000 C   0  0  0  0  0  0  0  0  0  0  0  0
    0.0000   -4.2985    0.0000 C   0  0  0  0  0  0  0  0  0  0  0  0
    5.3210   -0.6651    0.0000 O   0  0  0  0  0  0  0  0  0  0  0  0
    6.4726    0.0000    0.0000 C   0  0  0  0  0  0  0  0  0  0  0  0
    7.6241   -0.6651    0.0000 C   0  0  0  0  0  0  0  0  0  0  0  0
    8.7757    0.0000    0.0000 C   0  0  0  0  0  0  0  0  0  0  0  0
    9.9273   -0.6651    0.0000 C   0  0  0  0  0  0  0  0  0  0  0  0
  1  2  1  0  0  0  0
  2  3  1  0  0  0  0
  3  4  1  0  0  0  0
  4  5  1  0  0  0  0
  5  6  1  0  0  0  0
  6  7  2  0  0  0  0
  6  8  1  0  0  0  0
  6 13  1  0  0  0  0
  8  9  1  0  0  0  0
  9 10  1  0  0  0  0
 10 11  1  0  0  0  0
 11 12  1  0  0  0  0
 13 14  1  0  0  0  0
 14 15  1  0  0  0  0
 15 16  1  0  0  0  0
 16 17  1  0  0  0  0
M  END
>  <DSSTox_RID>
40832

>  <DSSTox_CID>
1986

>  <DSSTox_Generic_SID>
21986

>  <DSSTox_FileID>
1438_CPDBAS_v5d

>  <STRUCTURE_Formula>
C12H27O4P

>  <STRUCTURE_MolecularWeight>
266.3141

>  <STRUCTURE_ChemicalType>
defined organic

>  <STRUCTURE_TestedForm_DefinedOrganic>
parent

>  <STRUCTURE_Shown>
tested chemical

>  <TestSubstance_ChemicalName>
Tributyl phosphate

>  <TestSubstance_CASRN>
126-73-8

>  <TestSubstance_Description>
single chemical compound

>  <STRUCTURE_ChemicalName_IUPAC>
tributyl phosphate

>  <STRUCTURE_SMILES>
CCCCOP(=O)(OCCCC)OCCCC

>  <STRUCTURE_Parent_SMILES>
CCCCOP(=O)(OCCCC)OCCCC

>  <STRUCTURE_InChI>
InChI=1/C12H27O4P/c1-4-7-10-14-17(13,15-11-8-5-2)16-12-9-6-3/h4-12H2,1-3H3

>  <STRUCTURE_InChIKey>
STCOOQWBFONSKY-UHFFFAOYAN

>  <StudyType>
Carcinogenicity

>  <Endpoint>
TD50; Tumor Target Sites

>  <Species>
rat; mouse

>  <ActivityOutcome_CPDBAS_Mutagenicity>
inactive

>  <TD50_Rat_mg>
191

>  <TD50_Rat_mmol>
0.717

>  <ActivityScore_CPDBAS_Rat>
27

>  <TD50_Rat_Note>
TD50 is harmonic mean of more than one positive test

>  <TargetSites_Rat_Male>
urinary bladder

>  <TargetSites_Rat_Female>
urinary bladder

>  <ActivityOutcome_CPDBAS_Rat>
active

>  <TD50_Mouse_mg>
1120

>  <TD50_Mouse_mmol>
4.21

>  <ActivityScore_CPDBAS_Mouse>
21

>  <TargetSites_Mouse_Male>
liver

>  <TargetSites_Mouse_Female>
no positive results

>  <ActivityOutcome_CPDBAS_Mouse>
active

>  <ActivityOutcome_CPDBAS_SingleCellCall>
active

>  <ActivityOutcome_CPDBAS_MultiCellCall>
active

>  <ActivityOutcome_CPDBAS_MultiCellCall_Details>
multisite active; multisex active; multispecies active

>  <Note_CPDBAS>
Rat added v5a; Mouse added v5a; Mutagenicity_SAL_CPDB added v5a; chemical added v5a

>  <ChemicalPage_URL>
http://potency.berkeley.edu/chempages/TRIBUTYL%20PHOSPHATE.html

$$$$



 33 32  0  0  0  0  0  0  0  0999 V2000
    5.7724   -7.3216    0.0000 O   0  0  0  0  0  0  0  0  0  0  0  0
    6.9158   -7.9855    0.0000 C   0  0  0  0  0  0  0  0  0  0  0  0
    8.0777   -7.3216    0.0000 O   0  0  0  0  0  0  0  0  0  0  0  0
    8.0777   -5.9753    0.0000 C   0  0  0  0  0  0  0  0  0  0  0  0
    9.2211   -5.3114    0.0000 C   0  0  0  0  0  0  0  0  0  0  0  0
   10.3645   -5.9753    0.0000 O   0  0  0  0  0  0  0  0  0  0  0  0
   11.5264   -5.3114    0.0000 C   0  0  0  0  0  0  0  0  0  0  0  0
   12.6698   -5.9753    0.0000 O   0  0  0  0  0  0  0  0  0  0  0  0
   11.5264   -3.9835    0.0000 C   0  0  0  0  0  0  0  0  0  0  0  0
   12.6698   -3.3196    0.0000 C   0  0  0  0  0  0  0  0  0  0  0  0
   13.8317   -3.9835    0.0000 C   0  0  0  0  0  0  0  0  0  0  0  0
   14.9936   -3.3196    0.0000 C   0  0  0  0  0  0  0  0  0  0  0  0
   16.1370   -3.9835    0.0000 C   0  0  0  0  0  0  0  0  0  0  0  0
   17.2804   -3.3196    0.0000 C   0  0  0  0  0  0  0  0  0  0  0  0
   18.4423   -3.9835    0.0000 C   0  0  0  0  0  0  0  0  0  0  0  0
    6.9158   -5.3114    0.0000 C   0  0  0  0  0  0  0  0  0  0  0  0
    5.7724   -5.9753    0.0000 O   0  0  0  0  0  0  0  0  0  0  0  0
    4.6106   -5.3114    0.0000 C   0  0  0  0  0  0  0  0  0  0  0  0
    4.6106   -3.9835    0.0000 O   0  0  0  0  0  0  0  0  0  0  0  0
    3.4487   -5.9753    0.0000 C   0  0  0  0  0  0  0  0  0  0  0  0
    2.3053   -5.3114    0.0000 C   0  0  0  0  0  0  0  0  0  0  0  0
    2.3053   -3.9835    0.0000 C   0  0  0  0  0  0  0  0  0  0  0  0
    1.1434   -3.3196    0.0000 C   0  0  0  0  0  0  0  0  0  0  0  0
    1.1434   -1.9918    0.0000 C   0  0  0  0  0  0  0  0  0  0  0  0
    0.0000   -1.3278    0.0000 C   0  0  0  0  0  0  0  0  0  0  0  0
    0.0000    0.0000    0.0000 C   0  0  0  0  0  0  0  0  0  0  0  0
    6.9158   -9.3133    0.0000 C   0  0  0  0  0  0  0  0  0  0  0  0
    5.7724   -9.9773    0.0000 C   0  0  0  0  0  0  0  0  0  0  0  0
    4.6106   -9.3133    0.0000 C   0  0  0  0  0  0  0  0  0  0  0  0
    3.4487   -9.9773    0.0000 C   0  0  0  0  0  0  0  0  0  0  0  0
    2.3053   -9.3133    0.0000 C   0  0  0  0  0  0  0  0  0  0  0  0
    1.1434   -9.9773    0.0000 C   0  0  0  0  0  0  0  0  0  0  0  0
    0.0000   -9.3133    0.0000 C   0  0  0  0  0  0  0  0  0  0  0  0
  1  2  2  0  0  0  0
  2  3  1  0  0  0  0
  2 27  1  0  0  0  0
  3  4  1  0  0  0  0
  4  5  1  0  0  0  0
  4 16  1  0  0  0  0
  5  6  1  0  0  0  0
  6  7  1  0  0  0  0
  7  8  2  0  0  0  0
  7  9  1  0  0  0  0
  9 10  1  0  0  0  0
 10 11  1  0  0  0  0
 11 12  1  0  0  0  0
 12 13  1  0  0  0  0
 13 14  1  0  0  0  0
 14 15  1  0  0  0  0
 16 17  1  0  0  0  0
 17 18  1  0  0  0  0
 18 19  2  0  0  0  0
 18 20  1  0  0  0  0
 20 21  1  0  0  0  0
 21 22  1  0  0  0  0
 22 23  1  0  0  0  0
 23 24  1  0  0  0  0
 24 25  1  0  0  0  0
 25 26  1  0  0  0  0
 27 28  1  0  0  0  0
 28 29  1  0  0  0  0
 29 30  1  0  0  0  0
 30 31  1  0  0  0  0
 31 32  1  0  0  0  0
 32 33  1  0  0  0  0
M  END
>  <DSSTox_RID>
21375

>  <DSSTox_CID>
1375

>  <DSSTox_Generic_SID>
21375

>  <DSSTox_FileID>
1439_CPDBAS_v5d

>  <STRUCTURE_Formula>
C27H50O6

>  <STRUCTURE_MolecularWeight>
470.6823

>  <STRUCTURE_ChemicalType>
defined organic

>  <STRUCTURE_TestedForm_DefinedOrganic>
parent

>  <STRUCTURE_Shown>
tested chemical

>  <TestSubstance_ChemicalName>
Tricaprylin

>  <TestSubstance_CASRN>
538-23-8

>  <TestSubstance_Description>
single chemical compound

>  <STRUCTURE_ChemicalName_IUPAC>
propane-1,2,3-triyl trioctanoate

>  <STRUCTURE_SMILES>
O=C(OC(COC(=O)CCCCCCC)COC(=O)CCCCCCC)CCCCCCC

>  <STRUCTURE_Parent_SMILES>
O=C(OC(COC(=O)CCCCCCC)COC(=O)CCCCCCC)CCCCCCC

>  <STRUCTURE_InChI>
InChI=1/C27H50O6/c1-4-7-10-13-16-19-25(28)31-22-24(33-27(30)21-18-15-12-9-6-3)23-32-26(29)20-17-14-11-8-5-2/h24H,4-23H2,1-3H3

>  <STRUCTURE_InChIKey>
VLPFTAMPNXLGLX-UHFFFAOYAW

>  <StudyType>
Carcinogenicity

>  <Endpoint>
TD50; Tumor Target Sites

>  <Species>
rat

>  <ActivityOutcome_CPDBAS_Mutagenicity>
active

>  <TD50_Rat_mg>
5490

>  <TD50_Rat_mmol>
11.7

>  <ActivityScore_CPDBAS_Rat>
15

>  <TargetSites_Rat_Male>
pancreas

>  <ActivityOutcome_CPDBAS_Rat>
active

>  <ActivityOutcome_CPDBAS_SingleCellCall>
active

>  <Note_CPDBAS>
TD50_Rat modified v2a; TargetSites_Rat_Male modified v2a; Mutagenicity_SAL_CPDB added v3a; TargetSites_Rat modified v3a

>  <NTP_TechnicalReport>
TR 426; NTP reported that compound induced tumors of the male rat exocrine pancreas; but did not assign a level of evidence of carcinogenicity.

>  <ChemicalPage_URL>
http://potency.berkeley.edu/chempages/TRICAPRYLIN.html

$$$$



 15 15  0  0  0  0  0  0  0  0999 V2000
    5.9852   -2.3043    0.0000 O   0  5  0  0  0  0  0  0  0  0  0  0
    5.3208   -3.4534    0.0000 N   0  3  0  0  0  0  0  0  0  0  0  0
    5.9852   -4.6086    0.0000 O   0  0  0  0  0  0  0  0  0  0  0  0
    3.9921   -3.4534    0.0000 C   0  0  0  0  0  0  0  0  0  0  0  0
    3.3278   -4.6086    0.0000 C   0  0  0  0  0  0  0  0  0  0  0  0
    3.9921   -5.7577    0.0000 Cl  0  0  0  0  0  0  0  0  0  0  0  0
    1.9931   -4.6086    0.0000 C   0  0  0  0  0  0  0  0  0  0  0  0
    1.3287   -3.4534    0.0000 C   0  0  0  0  0  0  0  0  0  0  0  0
    0.0000   -3.4534    0.0000 Cl  0  0  0  0  0  0  0  0  0  0  0  0
    1.9931   -2.3043    0.0000 C   0  0  0  0  0  0  0  0  0  0  0  0
    3.3278   -2.3043    0.0000 C   0  0  0  0  0  0  0  0  0  0  0  0
    1.3287   -1.1492    0.0000 N   0  3  0  0  0  0  0  0  0  0  0  0
    0.0000   -1.1492    0.0000 O   0  5  0  0  0  0  0  0  0  0  0  0
    1.9931    0.0000    0.0000 O   0  0  0  0  0  0  0  0  0  0  0  0
    1.3287   -5.7577    0.0000 Cl  0  0  0  0  0  0  0  0  0  0  0  0
  1  2  1  0  0  0  0
  2  3  2  0  0  0  0
  2  4  1  0  0  0  0
  4  5  2  0  0  0  0
  4 11  1  0  0  0  0
  5  6  1  0  0  0  0
  5  7  1  0  0  0  0
  7  8  2  0  0  0  0
  7 15  1  0  0  0  0
  8  9  1  0  0  0  0
  8 10  1  0  0  0  0
 10 11  2  0  0  0  0
 10 12  1  0  0  0  0
 12 13  1  0  0  0  0
 12 14  2  0  0  0  0
M  END
>  <DSSTox_RID>
21376

>  <DSSTox_CID>
1376

>  <DSSTox_Generic_SID>
21376

>  <DSSTox_FileID>
1440_CPDBAS_v5d

>  <STRUCTURE_Formula>
C6HCl3N2O4

>  <STRUCTURE_MolecularWeight>
271.4439

>  <STRUCTURE_ChemicalType>
defined organic

>  <STRUCTURE_TestedForm_DefinedOrganic>
parent

>  <STRUCTURE_Shown>
tested chemical

>  <TestSubstance_ChemicalName>
1,2,3-Trichloro-4,6-dinitrobenzene

>  <TestSubstance_CASRN>
6379-46-0

>  <TestSubstance_Description>
single chemical compound

>  <STRUCTURE_ChemicalName_IUPAC>
2,3,4-trichloro-1,5-dinitrobenzene

>  <STRUCTURE_SMILES>
[O-][N+](=O)C1=C(Cl)C(=C(Cl)C(=C1)[N+]([O-])=O)Cl

>  <STRUCTURE_Parent_SMILES>
[O-][N+](=O)C1=C(Cl)C(=C(Cl)C(=C1)[N+]([O-])=O)Cl

>  <STRUCTURE_InChI>
InChI=1/C6HCl3N2O4/c7-4-2(10(12)13)1-3(11(14)15)5(8)6(4)9/h1H

>  <STRUCTURE_InChIKey>
WUMOEIUPWHYXBM-UHFFFAOYAL

>  <StudyType>
Carcinogenicity

>  <Endpoint>
TD50; Tumor Target Sites

>  <Species>
mouse

>  <ActivityScore_CPDBAS_Mouse>
0

>  <TD50_Mouse_Note>
no positive results

>  <TargetSites_Mouse_Male>
no positive results

>  <TargetSites_Mouse_Female>
no positive results

>  <ActivityOutcome_CPDBAS_Mouse>
inactive

>  <ActivityOutcome_CPDBAS_SingleCellCall>
inactive

>  <ActivityOutcome_CPDBAS_MultiCellCall>
inactive

>  <ActivityOutcome_CPDBAS_MultiCellCall_Details>
multisex inactive

>  <ChemicalPage_URL>
http://potency.berkeley.edu/chempages/1,2,3-TRICHLORO-4,6-DINITROBENZENE.html

$$$$



  8  7  0  0  0  0  0  0  0  0999 V2000
    1.3283   -1.3283    0.0000 C   0  0  0  0  0  0  0  0  0  0  0  0
    1.3283   -2.6606    0.0000 C   0  0  0  0  0  0  0  0  0  0  0  0
    2.6606   -2.6606    0.0000 F   0  0  0  0  0  0  0  0  0  0  0  0
    1.3283   -3.9889    0.0000 Cl  0  0  0  0  0  0  0  0  0  0  0  0
    0.0000   -2.6606    0.0000 Cl  0  0  0  0  0  0  0  0  0  0  0  0
    0.0000   -1.3283    0.0000 F   0  0  0  0  0  0  0  0  0  0  0  0
    1.3283    0.0000    0.0000 F   0  0  0  0  0  0  0  0  0  0  0  0
    2.6606   -1.3283    0.0000 Cl  0  0  0  0  0  0  0  0  0  0  0  0
  1  2  1  0  0  0  0
  1  6  1  0  0  0  0
  1  7  1  0  0  0  0
  1  8  1  0  0  0  0
  2  3  1  0  0  0  0
  2  4  1  0  0  0  0
  2  5  1  0  0  0  0
M  END
>  <DSSTox_RID>
21377

>  <DSSTox_CID>
1377

>  <DSSTox_Generic_SID>
24350

>  <DSSTox_FileID>
1441_CPDBAS_v5d

>  <STRUCTURE_Formula>
C2Cl3F3

>  <STRUCTURE_MolecularWeight>
187.3762

>  <STRUCTURE_ChemicalType>
defined organic

>  <STRUCTURE_TestedForm_DefinedOrganic>
parent

>  <STRUCTURE_Shown>
tested chemical

>  <TestSubstance_ChemicalName>
1,1,2-Trichloro-1,2,2-trifluoroethane, technical grade

>  <TestSubstance_CASRN>
76-13-1

>  <TestSubstance_Description>
single chemical compound

>  <STRUCTURE_ChemicalName_IUPAC>
1,1,2-trichloro-1,2,2-trifluoroethane

>  <STRUCTURE_SMILES>
C(C(F)(Cl)Cl)(F)(F)Cl

>  <STRUCTURE_Parent_SMILES>
C(C(F)(Cl)Cl)(F)(F)Cl

>  <STRUCTURE_InChI>
InChI=1/C2Cl3F3/c3-1(4,6)2(5,7)8

>  <STRUCTURE_InChIKey>
AJDIZQLSFPQPEY-UHFFFAOYAE

>  <StudyType>
Carcinogenicity

>  <Endpoint>
TD50; Tumor Target Sites

>  <Species>
rat

>  <ActivityScore_CPDBAS_Rat>
0

>  <TD50_Rat_Note>
no positive results

>  <TargetSites_Rat_Male>
no positive results

>  <TargetSites_Rat_Female>
no positive results

>  <ActivityOutcome_CPDBAS_Rat>
inactive

>  <ActivityOutcome_CPDBAS_SingleCellCall>
inactive

>  <ActivityOutcome_CPDBAS_MultiCellCall>
inactive

>  <ActivityOutcome_CPDBAS_MultiCellCall_Details>
multisex inactive

>  <ChemicalPage_URL>
http://potency.berkeley.edu/chempages/1,1,2-TRICHLORO-1,2,2-TRIFLUOROETHANE,%20TECHNICAL%20G.html

$$$$



  7  6  0  0  0  0  0  0  0  0999 V2000
    2.6608   -1.9956    0.0000 Cl  0  0  0  0  0  0  0  0  0  0  0  0
    1.3304   -1.9956    0.0000 C   0  0  0  0  0  0  0  0  0  0  0  0
    1.3304   -0.6652    0.0000 C   0  0  0  0  0  0  0  0  0  0  0  0
    0.1796    0.0000    0.0000 O   0  0  0  0  0  0  0  0  0  0  0  0
    2.4812    0.0000    0.0000 O   0  0  0  0  0  0  0  0  0  0  0  0
    1.3304   -3.3260    0.0000 Cl  0  0  0  0  0  0  0  0  0  0  0  0
    0.0000   -1.9956    0.0000 Cl  0  0  0  0  0  0  0  0  0  0  0  0
  1  2  1  0  0  0  0
  2  3  1  0  0  0  0
  2  6  1  0  0  0  0
  2  7  1  0  0  0  0
  3  4  2  0  0  0  0
  3  5  1  0  0  0  0
M  END
>  <DSSTox_RID>
21378

>  <DSSTox_CID>
1378

>  <DSSTox_Generic_SID>
21378

>  <DSSTox_FileID>
1442_CPDBAS_v5d

>  <STRUCTURE_Formula>
C2HCl3O2

>  <STRUCTURE_MolecularWeight>
163.3871

>  <STRUCTURE_ChemicalType>
defined organic

>  <STRUCTURE_TestedForm_DefinedOrganic>
parent

>  <STRUCTURE_Shown>
tested chemical

>  <TestSubstance_ChemicalName>
Trichloroacetic acid

>  <TestSubstance_CASRN>
76-03-9

>  <TestSubstance_Description>
single chemical compound

>  <STRUCTURE_ChemicalName_IUPAC>
trichloroacetic acid

>  <STRUCTURE_SMILES>
ClC(C(=O)O)(Cl)Cl

>  <STRUCTURE_Parent_SMILES>
ClC(C(=O)O)(Cl)Cl

>  <STRUCTURE_InChI>
InChI=1/C2HCl3O2/c3-2(4,5)1(6)7/h(H,6,7)/f/h6H

>  <STRUCTURE_InChIKey>
YNJBWRMUSHSURL-BRMMOCHJCE

>  <StudyType>
Carcinogenicity

>  <Endpoint>
TD50; Tumor Target Sites

>  <Species>
rat; mouse

>  <ActivityOutcome_CPDBAS_Mutagenicity>
inactive

>  <ActivityScore_CPDBAS_Rat>
0

>  <TD50_Rat_Note>
no positive results

>  <TargetSites_Rat_Male>
no positive results

>  <ActivityOutcome_CPDBAS_Rat>
inactive

>  <TD50_Mouse_mg>
584

>  <TD50_Mouse_mmol>
3.57

>  <ActivityScore_CPDBAS_Mouse>
22

>  <TD50_Mouse_Note>
TD50 is harmonic mean of more than one positive test

>  <TargetSites_Mouse_Male>
liver

>  <TargetSites_Mouse_Female>
liver

>  <ActivityOutcome_CPDBAS_Mouse>
active

>  <ActivityOutcome_CPDBAS_SingleCellCall>
active

>  <ActivityOutcome_CPDBAS_MultiCellCall>
active

>  <ActivityOutcome_CPDBAS_MultiCellCall_Details>
multisex active

>  <ChemicalPage_URL>
http://potency.berkeley.edu/chempages/TRICHLOROACETIC%20ACID.html

$$$$



 10 10  0  0  0  0  0  0  0  0999 V2000
    5.3182   -2.3028    0.0000 N   0  0  0  0  0  0  0  0  0  0  0  0
    3.9887   -2.3028    0.0000 C   0  0  0  0  0  0  0  0  0  0  0  0
    3.3239   -3.4568    0.0000 C   0  0  0  0  0  0  0  0  0  0  0  0
    1.9943   -3.4568    0.0000 C   0  0  0  0  0  0  0  0  0  0  0  0
    1.3296   -2.3028    0.0000 C   0  0  0  0  0  0  0  0  0  0  0  0
    1.9943   -1.1487    0.0000 C   0  0  0  0  0  0  0  0  0  0  0  0
    3.3239   -1.1487    0.0000 C   0  0  0  0  0  0  0  0  0  0  0  0
    3.9887    0.0000    0.0000 Cl  0  0  0  0  0  0  0  0  0  0  0  0
    0.0000   -2.3028    0.0000 Cl  0  0  0  0  0  0  0  0  0  0  0  0
    3.9887   -4.6056    0.0000 Cl  0  0  0  0  0  0  0  0  0  0  0  0
  1  2  1  0  0  0  0
  2  3  2  0  0  0  0
  2  7  1  0  0  0  0
  3  4  1  0  0  0  0
  3 10  1  0  0  0  0
  4  5  2  0  0  0  0
  5  6  1  0  0  0  0
  5  9  1  0  0  0  0
  6  7  2  0  0  0  0
  7  8  1  0  0  0  0
M  END
>  <DSSTox_RID>
21379

>  <DSSTox_CID>
1379

>  <DSSTox_Generic_SID>
21379

>  <DSSTox_FileID>
1443_CPDBAS_v5d

>  <STRUCTURE_Formula>
C6H4Cl3N

>  <STRUCTURE_MolecularWeight>
196.4617

>  <STRUCTURE_ChemicalType>
defined organic

>  <STRUCTURE_TestedForm_DefinedOrganic>
parent

>  <STRUCTURE_Shown>
tested chemical

>  <TestSubstance_ChemicalName>
2,4,6-Trichloroaniline

>  <TestSubstance_CASRN>
634-93-5

>  <TestSubstance_Description>
single chemical compound

>  <STRUCTURE_ChemicalName_IUPAC>
2,4,6-trichloroaniline

>  <STRUCTURE_SMILES>
NC1=C(C=C(C=C1Cl)Cl)Cl

>  <STRUCTURE_Parent_SMILES>
NC1=C(C=C(C=C1Cl)Cl)Cl

>  <STRUCTURE_InChI>
InChI=1/C6H4Cl3N/c7-3-1-4(8)6(10)5(9)2-3/h1-2H,10H2

>  <STRUCTURE_InChIKey>
NATVSFWWYVJTAZ-UHFFFAOYAL

>  <StudyType>
Carcinogenicity

>  <Endpoint>
TD50; Tumor Target Sites

>  <Species>
rat; mouse

>  <ActivityOutcome_CPDBAS_Mutagenicity>
inactive

>  <ActivityScore_CPDBAS_Rat>
0

>  <TD50_Rat_Note>
no positive results

>  <TargetSites_Rat_Male>
no positive results

>  <ActivityOutcome_CPDBAS_Rat>
inactive

>  <TD50_Mouse_mg>
259

>  <TD50_Mouse_mmol>
1.32

>  <ActivityScore_CPDBAS_Mouse>
27

>  <TargetSites_Mouse_Male>
liver; vascular system

>  <TargetSites_Mouse_Female>
no positive results

>  <ActivityOutcome_CPDBAS_Mouse>
active

>  <ActivityOutcome_CPDBAS_SingleCellCall>
active

>  <ActivityOutcome_CPDBAS_MultiCellCall>
active

>  <ActivityOutcome_CPDBAS_MultiCellCall_Details>
multisite active

>  <ChemicalPage_URL>
http://potency.berkeley.edu/chempages/2,4,6-TRICHLOROANILINE.html

$$$$



  5  4  0  0  0  0  0  0  0  0999 V2000
    3.4567   -1.9945    0.0000 Cl  0  0  0  0  0  0  0  0  0  0  0  0
    2.3056   -1.3308    0.0000 C   0  0  0  0  0  0  0  0  0  0  0  0
    1.1511   -1.9945    0.0000 C   0  0  0  0  0  0  0  0  0  0  0  0
    0.0000   -1.3308    0.0000 Cl  0  0  0  0  0  0  0  0  0  0  0  0
    2.3056    0.0000    0.0000 Cl  0  0  0  0  0  0  0  0  0  0  0  0
  1  2  1  0  0  0  0
  2  3  1  0  0  0  0
  2  5  1  0  0  0  0
  3  4  1  0  0  0  0
M  END
>  <DSSTox_RID>
21380

>  <DSSTox_CID>
1380

>  <DSSTox_Generic_SID>
21380

>  <DSSTox_FileID>
1444_CPDBAS_v5d

>  <STRUCTURE_Formula>
C2H3Cl3

>  <STRUCTURE_MolecularWeight>
133.4042

>  <STRUCTURE_ChemicalType>
defined organic

>  <STRUCTURE_TestedForm_DefinedOrganic>
parent

>  <STRUCTURE_Shown>
tested chemical

>  <TestSubstance_ChemicalName>
1,1,2-Trichloroethane

>  <TestSubstance_CASRN>
79-00-5

>  <TestSubstance_Description>
single chemical compound

>  <STRUCTURE_ChemicalName_IUPAC>
1,1,2-trichloroethane

>  <STRUCTURE_SMILES>
ClC(CCl)Cl

>  <STRUCTURE_Parent_SMILES>
ClC(CCl)Cl

>  <STRUCTURE_InChI>
InChI=1/C2H3Cl3/c3-1-2(4)5/h2H,1H2

>  <STRUCTURE_InChIKey>
UBOXGVDOUJQMTN-UHFFFAOYAA

>  <StudyType>
Carcinogenicity

>  <Endpoint>
TD50; Tumor Target Sites

>  <Species>
rat; mouse

>  <ActivityOutcome_CPDBAS_Mutagenicity>
inactive

>  <ActivityScore_CPDBAS_Rat>
0

>  <TD50_Rat_Note>
no positive results

>  <TargetSites_Rat_Male>
no positive results

>  <TargetSites_Rat_Female>
no positive results

>  <ActivityOutcome_CPDBAS_Rat>
inactive

>  <TD50_Mouse_mg>
55

>  <TD50_Mouse_mmol>
0.412

>  <ActivityScore_CPDBAS_Mouse>
33

>  <TD50_Mouse_Note>
TD50 is harmonic mean of more than one positive test

>  <TargetSites_Mouse_Male>
adrenal gland; liver

>  <TargetSites_Mouse_Female>
adrenal gland; liver

>  <ActivityOutcome_CPDBAS_Mouse>
active

>  <ActivityOutcome_CPDBAS_SingleCellCall>
active

>  <ActivityOutcome_CPDBAS_MultiCellCall>
active

>  <ActivityOutcome_CPDBAS_MultiCellCall_Details>
multisite active; multisex active

>  <NTP_TechnicalReport>
TR 74

>  <ChemicalPage_URL>
http://potency.berkeley.edu/chempages/1,1,2-TRICHLOROETHANE.html

$$$$



  5  4  0  0  0  0  0  0  0  0999 V2000
    1.3300   -2.6600    0.0000 C   0  0  0  0  0  0  0  0  0  0  0  0
    1.3300   -1.3300    0.0000 C   0  0  0  0  0  0  0  0  0  0  0  0
    0.0000   -1.3300    0.0000 Cl  0  0  0  0  0  0  0  0  0  0  0  0
    1.3300    0.0000    0.0000 Cl  0  0  0  0  0  0  0  0  0  0  0  0
    2.6600   -1.3300    0.0000 Cl  0  0  0  0  0  0  0  0  0  0  0  0
  1  2  1  0  0  0  0
  2  3  1  0  0  0  0
  2  4  1  0  0  0  0
  2  5  1  0  0  0  0
M  END
>  <DSSTox_RID>
21381

>  <DSSTox_CID>
1381

>  <DSSTox_Generic_SID>
21745

>  <DSSTox_FileID>
1445_CPDBAS_v5d

>  <STRUCTURE_Formula>
C2H3Cl3

>  <STRUCTURE_MolecularWeight>
133.4047

>  <STRUCTURE_ChemicalType>
defined organic

>  <STRUCTURE_TestedForm_DefinedOrganic>
parent

>  <STRUCTURE_Shown>
tested chemical

>  <TestSubstance_ChemicalName>
1,1,1-Trichloroethane, technical grade

>  <TestSubstance_CASRN>
71-55-6

>  <TestSubstance_Description>
single chemical compound

>  <STRUCTURE_ChemicalName_IUPAC>
1,1,1-trichloroethane

>  <STRUCTURE_SMILES>
CC(Cl)(Cl)Cl

>  <STRUCTURE_Parent_SMILES>
CC(Cl)(Cl)Cl

>  <STRUCTURE_InChI>
InChI=1/C2H3Cl3/c1-2(3,4)5/h1H3

>  <STRUCTURE_InChIKey>
UOCLXMDMGBRAIB-UHFFFAOYAP

>  <StudyType>
Carcinogenicity

>  <Endpoint>
TD50; Tumor Target Sites

>  <Species>
rat; mouse

>  <ActivityOutcome_CPDBAS_Mutagenicity>
active

>  <ActivityScore_CPDBAS_Rat>
0

>  <TD50_Rat_Note>
no positive results

>  <TargetSites_Rat_Male>
no positive results

>  <TargetSites_Rat_Female>
no positive results

>  <ActivityOutcome_CPDBAS_Rat>
inactive

>  <ActivityScore_CPDBAS_Mouse>
0

>  <TD50_Mouse_Note>
no positive results

>  <TargetSites_Mouse_Male>
no positive results

>  <TargetSites_Mouse_Female>
no positive results

>  <ActivityOutcome_CPDBAS_Mouse>
inactive

>  <ActivityOutcome_CPDBAS_SingleCellCall>
inactive

>  <ActivityOutcome_CPDBAS_MultiCellCall>
inactive

>  <ActivityOutcome_CPDBAS_MultiCellCall_Details>
multisex inactive; multispecies inactive

>  <NTP_TechnicalReport>
TR 3; additional results included in CPDB

>  <ChemicalPage_URL>
http://potency.berkeley.edu/chempages/1,1,1-TRICHLOROETHANE,%20TECHNICAL%20GRADE.html

$$$$



  5  4  0  0  0  0  0  0  0  0999 V2000
    3.4567   -1.9945    0.0000 Cl  0  0  0  0  0  0  0  0  0  0  0  0
    2.3056   -1.3308    0.0000 C   0  0  0  0  0  0  0  0  0  0  0  0
    1.1511   -1.9945    0.0000 C   0  0  0  0  0  0  0  0  0  0  0  0
    0.0000   -1.3308    0.0000 Cl  0  0  0  0  0  0  0  0  0  0  0  0
    2.3056    0.0000    0.0000 Cl  0  0  0  0  0  0  0  0  0  0  0  0
  1  2  1  0  0  0  0
  2  3  2  0  0  0  0
  2  5  1  0  0  0  0
  3  4  1  0  0  0  0
M  END
>  <DSSTox_RID>
21382

>  <DSSTox_CID>
1382

>  <DSSTox_Generic_SID>
21382

>  <DSSTox_FileID>
1446_CPDBAS_v5d

>  <STRUCTURE_Formula>
C2HCl3

>  <STRUCTURE_MolecularWeight>
131.3889

>  <STRUCTURE_ChemicalType>
defined organic

>  <STRUCTURE_TestedForm_DefinedOrganic>
parent

>  <STRUCTURE_Shown>
tested chemical

>  <TestSubstance_ChemicalName>
Trichloroethylene (without epichlorohydrin)

>  <TestSubstance_CASRN>
79-01-6

>  <TestSubstance_Description>
single chemical compound

>  <STRUCTURE_ChemicalName_IUPAC>
1,1,2-trichloroethene

>  <STRUCTURE_SMILES>
ClC(=CCl)Cl

>  <STRUCTURE_Parent_SMILES>
ClC(=CCl)Cl

>  <STRUCTURE_InChI>
InChI=1/C2HCl3/c3-1-2(4)5/h1H

>  <STRUCTURE_InChIKey>
XSTXAVWGXDQKEL-UHFFFAOYAI

>  <StudyType>
Carcinogenicity

>  <Endpoint>
TD50; Tumor Target Sites

>  <Species>
rat; mouse; hamster

>  <ActivityOutcome_CPDBAS_Mutagenicity>
inactive

>  <TD50_Rat_mg>
668

>  <TD50_Rat_mmol>
5.08

>  <ActivityScore_CPDBAS_Rat>
18

>  <TD50_Rat_Note>
TD50 is harmonic mean of more than one positive test

>  <TargetSites_Rat_Male>
testes

>  <TargetSites_Rat_Female>
no positive results

>  <ActivityOutcome_CPDBAS_Rat>
active

>  <TD50_Mouse_mg>
1580

>  <TD50_Mouse_mmol>
12

>  <ActivityScore_CPDBAS_Mouse>
16

>  <TD50_Mouse_Note>
TD50 is harmonic mean of more than one positive test; greater than ten-fold variation among TD50 values for positive results

>  <TargetSites_Mouse_Male>
liver; lung

>  <TargetSites_Mouse_Female>
liver; lung

>  <ActivityOutcome_CPDBAS_Mouse>
active

>  <ActivityScore_CPDBAS_Hamster>
0

>  <TD50_Hamster_Note>
no positive results

>  <TargetSites_Hamster_Male>
no positive results

>  <TargetSites_Hamster_Female>
no positive results

>  <ActivityOutcome_CPDBAS_Hamster>
inactive

>  <ActivityOutcome_CPDBAS_SingleCellCall>
active

>  <ActivityOutcome_CPDBAS_MultiCellCall>
active

>  <ActivityOutcome_CPDBAS_MultiCellCall_Details>
multisite active; multisex active; multispecies active

>  <NTP_TechnicalReport>
TR 273; final call in CPDB differs due to additional data

>  <ChemicalPage_URL>
http://potency.berkeley.edu/chempages/TRICHLOROETHYLENE.html

$$$$



  5  4  0  0  0  0  0  0  0  0999 V2000
    3.4567   -1.9945    0.0000 Cl  0  0  0  0  0  0  0  0  0  0  0  0
    2.3056   -1.3308    0.0000 C   0  0  0  0  0  0  0  0  0  0  0  0
    1.1511   -1.9945    0.0000 C   0  0  0  0  0  0  0  0  0  0  0  0
    0.0000   -1.3308    0.0000 Cl  0  0  0  0  0  0  0  0  0  0  0  0
    2.3056    0.0000    0.0000 Cl  0  0  0  0  0  0  0  0  0  0  0  0
  1  2  1  0  0  0  0
  2  3  2  0  0  0  0
  2  5  1  0  0  0  0
  3  4  1  0  0  0  0
M  END
>  <DSSTox_RID>
21383

>  <DSSTox_CID>
1382

>  <DSSTox_Generic_SID>
21383

>  <DSSTox_FileID>
1447_CPDBAS_v5d

>  <STRUCTURE_Formula>
C2HCl3

>  <STRUCTURE_MolecularWeight>
131.3883

>  <STRUCTURE_ChemicalType>
defined organic

>  <STRUCTURE_TestedForm_DefinedOrganic>
parent

>  <STRUCTURE_Shown>
tested chemical

>  <TestSubstance_ChemicalName>
Trichloroethylene

>  <TestSubstance_CASRN>
79-01-6

>  <TestSubstance_Description>
single chemical compound

>  <STRUCTURE_ChemicalName_IUPAC>
1,1,2-trichloroethene

>  <STRUCTURE_SMILES>
ClC(=CCl)Cl

>  <STRUCTURE_Parent_SMILES>
ClC(=CCl)Cl

>  <STRUCTURE_InChI>
InChI=1/C2HCl3/c3-1-2(4)5/h1H

>  <STRUCTURE_InChIKey>
XSTXAVWGXDQKEL-UHFFFAOYAI

>  <StudyType>
Carcinogenicity

>  <Endpoint>
TD50; Tumor Target Sites

>  <Species>
rat; mouse

>  <ActivityOutcome_CPDBAS_Mutagenicity>
inactive

>  <ActivityScore_CPDBAS_Rat>
0

>  <TD50_Rat_Note>
no positive results

>  <TargetSites_Rat_Male>
no positive results

>  <TargetSites_Rat_Female>
no positive results

>  <ActivityOutcome_CPDBAS_Rat>
inactive

>  <TD50_Mouse_mg>
343

>  <TD50_Mouse_mmol>
2.61

>  <ActivityScore_CPDBAS_Mouse>
24

>  <TD50_Mouse_Note>
TD50 is harmonic mean of more than one positive test

>  <TargetSites_Mouse_Male>
liver

>  <TargetSites_Mouse_Female>
liver

>  <ActivityOutcome_CPDBAS_Mouse>
active

>  <ActivityOutcome_CPDBAS_SingleCellCall>
active

>  <ActivityOutcome_CPDBAS_MultiCellCall>
active

>  <ActivityOutcome_CPDBAS_MultiCellCall_Details>
multisex active

>  <NTP_TechnicalReport>
TR 243

>  <ChemicalPage_URL>
http://potency.berkeley.edu/chempages/TRICHLOROETHYLENE%20(WITHOUT%20EPICHLOROHYDRIN).html

$$$$



  5  4  0  0  0  0  0  0  0  0999 V2000
    1.3300   -2.6600    0.0000 F   0  0  0  0  0  0  0  0  0  0  0  0
    1.3300   -1.3300    0.0000 C   0  0  0  0  0  0  0  0  0  0  0  0
    0.0000   -1.3300    0.0000 Cl  0  0  0  0  0  0  0  0  0  0  0  0
    1.3300    0.0000    0.0000 Cl  0  0  0  0  0  0  0  0  0  0  0  0
    2.6600   -1.3300    0.0000 Cl  0  0  0  0  0  0  0  0  0  0  0  0
  1  2  1  0  0  0  0
  2  3  1  0  0  0  0
  2  4  1  0  0  0  0
  2  5  1  0  0  0  0
M  END
>  <DSSTox_RID>
21384

>  <DSSTox_CID>
1384

>  <DSSTox_Generic_SID>
21384

>  <DSSTox_FileID>
1448_CPDBAS_v5d

>  <STRUCTURE_Formula>
CCl3F

>  <STRUCTURE_MolecularWeight>
137.3681

>  <STRUCTURE_ChemicalType>
defined organic

>  <STRUCTURE_TestedForm_DefinedOrganic>
parent

>  <STRUCTURE_Shown>
tested chemical

>  <TestSubstance_ChemicalName>
Trichlorofluoromethane

>  <TestSubstance_CASRN>
75-69-4

>  <TestSubstance_Description>
single chemical compound

>  <STRUCTURE_ChemicalName_IUPAC>
trichloro(fluoro)methane

>  <STRUCTURE_SMILES>
FC(Cl)(Cl)Cl

>  <STRUCTURE_Parent_SMILES>
FC(Cl)(Cl)Cl

>  <STRUCTURE_InChI>
InChI=1/CCl3F/c2-1(3,4)5

>  <STRUCTURE_InChIKey>
CYRMSUTZVYGINF-UHFFFAOYAT

>  <StudyType>
Carcinogenicity

>  <Endpoint>
TD50; Tumor Target Sites

>  <Species>
rat; mouse

>  <ActivityOutcome_CPDBAS_Mutagenicity>
inactive

>  <ActivityScore_CPDBAS_Rat>
0

>  <TD50_Rat_Note>
no positive results

>  <TargetSites_Rat_Male>
no positive results

>  <TargetSites_Rat_Female>
no positive results

>  <ActivityOutcome_CPDBAS_Rat>
inactive

>  <ActivityScore_CPDBAS_Mouse>
0

>  <TD50_Mouse_Note>
no positive results

>  <TargetSites_Mouse_Male>
no positive results

>  <TargetSites_Mouse_Female>
no positive results

>  <ActivityOutcome_CPDBAS_Mouse>
inactive

>  <ActivityOutcome_CPDBAS_SingleCellCall>
inactive

>  <ActivityOutcome_CPDBAS_MultiCellCall>
inactive

>  <ActivityOutcome_CPDBAS_MultiCellCall_Details>
multisex inactive; multispecies inactive

>  <NTP_TechnicalReport>
TR 106; additional results included in CPDB

>  <ChemicalPage_URL>
http://potency.berkeley.edu/chempages/TRICHLOROFLUOROMETHANE.html

$$$$



 16 17  0  0  0  0  0  0  0  0999 V2000
    4.9479   -4.0566    0.0000 O   0  0  0  0  0  0  0  0  0  0  0  0
    3.9584   -3.1652    0.0000 C   0  0  0  0  0  0  0  0  0  0  0  0
    4.1019   -1.8432    0.0000 N   0  0  0  0  0  0  0  0  0  0  0  0
    2.8857   -1.2993    0.0000 C   0  0  0  0  0  0  0  0  0  0  0  0
    2.6062    0.0000    0.0000 O   0  0  0  0  0  0  0  0  0  0  0  0
    1.9943   -2.2889    0.0000 C   0  0  0  0  0  0  0  0  0  0  0  0
    2.6590   -3.4447    0.0000 C   0  0  0  0  0  0  0  0  0  0  0  0
    1.9943   -4.5929    0.0000 C   0  0  0  0  0  0  0  0  0  0  0  0
    0.6648   -4.5929    0.0000 C   0  0  0  0  0  0  0  0  0  0  0  0
    0.0000   -3.4447    0.0000 C   0  0  0  0  0  0  0  0  0  0  0  0
    0.6648   -2.2889    0.0000 C   0  0  0  0  0  0  0  0  0  0  0  0
    5.2501   -1.1784    0.0000 S   0  0  0  0  0  0  0  0  0  0  0  0
    6.4059   -1.8432    0.0000 C   0  0  0  0  0  0  0  0  0  0  0  0
    7.0707   -0.6874    0.0000 Cl  0  0  0  0  0  0  0  0  0  0  0  0
    7.5541   -2.5080    0.0000 Cl  0  0  0  0  0  0  0  0  0  0  0  0
    5.7411   -2.9914    0.0000 Cl  0  0  0  0  0  0  0  0  0  0  0  0
  1  2  2  0  0  0  0
  2  3  1  0  0  0  0
  2  7  1  0  0  0  0
  3  4  1  0  0  0  0
  3 12  1  0  0  0  0
  4  5  2  0  0  0  0
  4  6  1  0  0  0  0
  6  7  2  0  0  0  0
  6 11  1  0  0  0  0
  7  8  1  0  0  0  0
  8  9  2  0  0  0  0
  9 10  1  0  0  0  0
 10 11  2  0  0  0  0
 12 13  1  0  0  0  0
 13 14  1  0  0  0  0
 13 15  1  0  0  0  0
 13 16  1  0  0  0  0
M  END
>  <DSSTox_RID>
21385

>  <DSSTox_CID>
1385

>  <DSSTox_Generic_SID>
21385

>  <DSSTox_FileID>
1449_CPDBAS_v5d

>  <STRUCTURE_Formula>
C9H4Cl3NO2S

>  <STRUCTURE_MolecularWeight>
296.5576

>  <STRUCTURE_ChemicalType>
defined organic

>  <STRUCTURE_TestedForm_DefinedOrganic>
parent

>  <STRUCTURE_Shown>
tested chemical

>  <TestSubstance_ChemicalName>
N-(Trichloromethylthio)phthalimide

>  <TestSubstance_CASRN>
133-07-3

>  <TestSubstance_Description>
single chemical compound

>  <STRUCTURE_ChemicalName_IUPAC>
2-[(trichloromethyl)thio]-1H-isoindole-1,3(2H)-dione

>  <STRUCTURE_SMILES>
O=C1N(C(=O)C2=C1C=CC=C2)SC(Cl)(Cl)Cl

>  <STRUCTURE_Parent_SMILES>
O=C1N(C(=O)C2=C1C=CC=C2)SC(Cl)(Cl)Cl

>  <STRUCTURE_InChI>
InChI=1/C9H4Cl3NO2S/c10-9(11,12)16-13-7(14)5-3-1-2-4-6(5)8(13)15/h1-4H

>  <STRUCTURE_InChIKey>
HKIOYBQGHSTUDB-UHFFFAOYAD

>  <StudyType>
Carcinogenicity

>  <Endpoint>
TD50; Tumor Target Sites

>  <Species>
rat; mouse

>  <ActivityOutcome_CPDBAS_Mutagenicity>
active

>  <ActivityScore_CPDBAS_Rat>
0

>  <TD50_Rat_Note>
no positive results

>  <TargetSites_Rat_Male>
no positive results

>  <TargetSites_Rat_Female>
no positive results

>  <ActivityOutcome_CPDBAS_Rat>
inactive

>  <TD50_Mouse_mg>
1550

>  <TD50_Mouse_mmol>
5.23

>  <ActivityScore_CPDBAS_Mouse>
20

>  <TD50_Mouse_Note>
TD50 is harmonic mean of more than one positive test

>  <TargetSites_Mouse_Male>
small intestine; stomach

>  <TargetSites_Mouse_Female>
small intestine

>  <ActivityOutcome_CPDBAS_Mouse>
active

>  <ActivityOutcome_CPDBAS_SingleCellCall>
active

>  <ActivityOutcome_CPDBAS_MultiCellCall>
active

>  <ActivityOutcome_CPDBAS_MultiCellCall_Details>
multisite active; multisex active

>  <ChemicalPage_URL>
http://potency.berkeley.edu/chempages/N-(TRICHLOROMETHYLTHIO)PHTHALIMIDE.html

$$$$



 10 10  0  0  0  0  0  0  0  0999 V2000
    5.3182   -2.3028    0.0000 O   0  0  0  0  0  0  0  0  0  0  0  0
    3.9887   -2.3028    0.0000 C   0  0  0  0  0  0  0  0  0  0  0  0
    3.3239   -3.4568    0.0000 C   0  0  0  0  0  0  0  0  0  0  0  0
    1.9943   -3.4568    0.0000 C   0  0  0  0  0  0  0  0  0  0  0  0
    1.3296   -2.3028    0.0000 C   0  0  0  0  0  0  0  0  0  0  0  0
    1.9943   -1.1487    0.0000 C   0  0  0  0  0  0  0  0  0  0  0  0
    3.3239   -1.1487    0.0000 C   0  0  0  0  0  0  0  0  0  0  0  0
    3.9887    0.0000    0.0000 Cl  0  0  0  0  0  0  0  0  0  0  0  0
    0.0000   -2.3028    0.0000 Cl  0  0  0  0  0  0  0  0  0  0  0  0
    3.9887   -4.6056    0.0000 Cl  0  0  0  0  0  0  0  0  0  0  0  0
  1  2  1  0  0  0  0
  2  3  2  0  0  0  0
  2  7  1  0  0  0  0
  3  4  1  0  0  0  0
  3 10  1  0  0  0  0
  4  5  2  0  0  0  0
  5  6  1  0  0  0  0
  5  9  1  0  0  0  0
  6  7  2  0  0  0  0
  7  8  1  0  0  0  0
M  END
>  <DSSTox_RID>
21386

>  <DSSTox_CID>
1386

>  <DSSTox_Generic_SID>
21386

>  <DSSTox_FileID>
1450_CPDBAS_v5d

>  <STRUCTURE_Formula>
C6H3Cl3O

>  <STRUCTURE_MolecularWeight>
197.4464

>  <STRUCTURE_ChemicalType>
defined organic

>  <STRUCTURE_TestedForm_DefinedOrganic>
parent

>  <STRUCTURE_Shown>
tested chemical

>  <TestSubstance_ChemicalName>
2,4,6-Trichlorophenol

>  <TestSubstance_CASRN>
88-06-2

>  <TestSubstance_Description>
single chemical compound

>  <STRUCTURE_ChemicalName_IUPAC>
2,4,6-trichlorophenol

>  <STRUCTURE_SMILES>
OC1=C(C=C(C=C1Cl)Cl)Cl

>  <STRUCTURE_Parent_SMILES>
OC1=C(C=C(C=C1Cl)Cl)Cl

>  <STRUCTURE_InChI>
InChI=1/C6H3Cl3O/c7-3-1-4(8)6(10)5(9)2-3/h1-2,10H

>  <STRUCTURE_InChIKey>
LINPIYWFGCPVIE-UHFFFAOYAP

>  <StudyType>
Carcinogenicity

>  <Endpoint>
TD50; Tumor Target Sites

>  <Species>
rat; mouse

>  <ActivityOutcome_CPDBAS_Mutagenicity>
inactive

>  <TD50_Rat_mg>
405

>  <TD50_Rat_mmol>
2.05

>  <ActivityScore_CPDBAS_Rat>
22

>  <TargetSites_Rat_Male>
hematopoietic system

>  <TargetSites_Rat_Female>
no positive results

>  <ActivityOutcome_CPDBAS_Rat>
active

>  <TD50_Mouse_mg>
1070

>  <TD50_Mouse_mmol>
5.42

>  <ActivityScore_CPDBAS_Mouse>
20

>  <TD50_Mouse_Note>
TD50 is harmonic mean of more than one positive test

>  <TargetSites_Mouse_Male>
liver

>  <TargetSites_Mouse_Female>
liver

>  <ActivityOutcome_CPDBAS_Mouse>
active

>  <ActivityOutcome_CPDBAS_SingleCellCall>
active

>  <ActivityOutcome_CPDBAS_MultiCellCall>
active

>  <ActivityOutcome_CPDBAS_MultiCellCall_Details>
multisite active; multisex active; multispecies active

>  <NTP_TechnicalReport>
TR 155

>  <ChemicalPage_URL>
http://potency.berkeley.edu/chempages/2,4,6-TRICHLOROPHENOL.html

$$$$



 15 15  0  0  0  0  0  0  0  0999 V2000
    3.9868    0.0000    0.0000 Cl  0  0  0  0  0  0  0  0  0  0  0  0
    3.3285   -1.1485    0.0000 C   0  0  0  0  0  0  0  0  0  0  0  0
    3.9868   -2.3043    0.0000 C   0  0  0  0  0  0  0  0  0  0  0  0
    3.3285   -3.4528    0.0000 C   0  0  0  0  0  0  0  0  0  0  0  0
    1.9971   -3.4528    0.0000 C   0  0  0  0  0  0  0  0  0  0  0  0
    1.3314   -2.3043    0.0000 C   0  0  0  0  0  0  0  0  0  0  0  0
    1.9971   -1.1485    0.0000 C   0  0  0  0  0  0  0  0  0  0  0  0
    0.0000   -2.3043    0.0000 Cl  0  0  0  0  0  0  0  0  0  0  0  0
    1.3314   -4.6086    0.0000 Cl  0  0  0  0  0  0  0  0  0  0  0  0
    5.3182   -2.3043    0.0000 O   0  0  0  0  0  0  0  0  0  0  0  0
    5.9839   -3.4528    0.0000 C   0  0  3  0  0  0  0  0  0  0  0  0
    5.3182   -4.6086    0.0000 C   0  0  0  0  0  0  0  0  0  0  0  0
    5.9839   -5.7571    0.0000 O   0  0  0  0  0  0  0  0  0  0  0  0
    3.9868   -4.6086    0.0000 O   0  0  0  0  0  0  0  0  0  0  0  0
    7.3153   -3.4528    0.0000 C   0  0  0  0  0  0  0  0  0  0  0  0
  1  2  1  0  0  0  0
  2  3  2  0  0  0  0
  2  7  1  0  0  0  0
  3  4  1  0  0  0  0
  3 10  1  0  0  0  0
  4  5  2  0  0  0  0
  5  6  1  0  0  0  0
  5  9  1  0  0  0  0
  6  7  2  0  0  0  0
  6  8  1  0  0  0  0
 10 11  1  0  0  0  0
 11 12  1  0  0  0  0
 11 15  1  0  0  0  0
 12 13  2  0  0  0  0
 12 14  1  0  0  0  0
M  END
>  <DSSTox_RID>
21387

>  <DSSTox_CID>
1387

>  <DSSTox_Generic_SID>
21387

>  <DSSTox_FileID>
1451_CPDBAS_v5d

>  <STRUCTURE_Formula>
C9H7Cl3O3

>  <STRUCTURE_MolecularWeight>
269.5091

>  <STRUCTURE_ChemicalType>
defined organic

>  <STRUCTURE_TestedForm_DefinedOrganic>
parent

>  <STRUCTURE_Shown>
tested chemical

>  <TestSubstance_ChemicalName>
2-(2,4,5-Trichlorophenoxy)propionic acid

>  <TestSubstance_CASRN>
93-72-1

>  <TestSubstance_Description>
single chemical compound

>  <STRUCTURE_ChemicalName_IUPAC>
2-[(2,4,5-trichlorophenyl)oxy]propanoic acid

>  <STRUCTURE_SMILES>
ClC1=C(C=C(C(=C1)Cl)Cl)OC(C(=O)O)C

>  <STRUCTURE_Parent_SMILES>
ClC1=C(C=C(C(=C1)Cl)Cl)OC(C(=O)O)C

>  <STRUCTURE_InChI>
InChI=1/C9H7Cl3O3/c1-4(9(13)14)15-8-3-6(11)5(10)2-7(8)12/h2-4H,1H3,(H,13,14)/f/h13H

>  <STRUCTURE_InChIKey>
ZLSWBLPERHFHIS-NDKGDYFDCP

>  <StudyType>
Carcinogenicity

>  <Endpoint>
TD50; Tumor Target Sites

>  <Species>
mouse

>  <ActivityScore_CPDBAS_Mouse>
0

>  <TD50_Mouse_Note>
no positive results

>  <TargetSites_Mouse_Male>
no positive results

>  <TargetSites_Mouse_Female>
no positive results

>  <ActivityOutcome_CPDBAS_Mouse>
inactive

>  <ActivityOutcome_CPDBAS_SingleCellCall>
inactive

>  <ActivityOutcome_CPDBAS_MultiCellCall>
inactive

>  <ActivityOutcome_CPDBAS_MultiCellCall_Details>
multisex inactive

>  <ChemicalPage_URL>
http://potency.berkeley.edu/chempages/2-(2,4,5-TRICHLOROPHENOXY)PROPIONIC%20ACID.html

$$$$



 14 14  0  0  0  0  0  0  0  0999 V2000
    3.4580   -3.9899    0.0000 Cl  0  0  0  0  0  0  0  0  0  0  0  0
    4.6025   -3.3290    0.0000 C   0  0  0  0  0  0  0  0  0  0  0  0
    4.6025   -1.9990    0.0000 C   0  0  0  0  0  0  0  0  0  0  0  0
    5.7552   -1.3300    0.0000 C   0  0  0  0  0  0  0  0  0  0  0  0
    6.9078   -1.9990    0.0000 C   0  0  0  0  0  0  0  0  0  0  0  0
    6.9078   -3.3290    0.0000 C   0  0  0  0  0  0  0  0  0  0  0  0
    5.7552   -3.9899    0.0000 C   0  0  0  0  0  0  0  0  0  0  0  0
    8.0605   -3.9899    0.0000 Cl  0  0  0  0  0  0  0  0  0  0  0  0
    8.0605   -1.3300    0.0000 Cl  0  0  0  0  0  0  0  0  0  0  0  0
    3.4580   -1.3300    0.0000 O   0  0  0  0  0  0  0  0  0  0  0  0
    2.3053   -1.9990    0.0000 C   0  0  0  0  0  0  0  0  0  0  0  0
    1.1527   -1.3300    0.0000 C   0  0  0  0  0  0  0  0  0  0  0  0
    1.1527    0.0000    0.0000 O   0  0  0  0  0  0  0  0  0  0  0  0
    0.0000   -1.9990    0.0000 O   0  0  0  0  0  0  0  0  0  0  0  0
  1  2  1  0  0  0  0
  2  3  2  0  0  0  0
  2  7  1  0  0  0  0
  3  4  1  0  0  0  0
  3 10  1  0  0  0  0
  4  5  2  0  0  0  0
  5  6  1  0  0  0  0
  5  9  1  0  0  0  0
  6  7  2  0  0  0  0
  6  8  1  0  0  0  0
 10 11  1  0  0  0  0
 11 12  1  0  0  0  0
 12 13  2  0  0  0  0
 12 14  1  0  0  0  0
M  END
>  <DSSTox_RID>
21388

>  <DSSTox_CID>
1388

>  <DSSTox_Generic_SID>
21388

>  <DSSTox_FileID>
1452_CPDBAS_v5d

>  <STRUCTURE_Formula>
C8H5Cl3O3

>  <STRUCTURE_MolecularWeight>
255.4825

>  <STRUCTURE_ChemicalType>
defined organic

>  <STRUCTURE_TestedForm_DefinedOrganic>
parent

>  <STRUCTURE_Shown>
tested chemical

>  <TestSubstance_ChemicalName>
2,4,5-Trichlorophenoxyacetic acid

>  <TestSubstance_CASRN>
93-76-5

>  <TestSubstance_Description>
single chemical compound

>  <STRUCTURE_ChemicalName_IUPAC>
(2,4,5-trichlorophenoxy)acetic acid

>  <STRUCTURE_SMILES>
ClC1=C(C=C(C(=C1)Cl)Cl)OCC(=O)O

>  <STRUCTURE_Parent_SMILES>
ClC1=C(C=C(C(=C1)Cl)Cl)OCC(=O)O

>  <STRUCTURE_InChI>
InChI=1/C8H5Cl3O3/c9-4-1-6(11)7(2-5(4)10)14-3-8(12)13/h1-2H,3H2,(H,12,13)/f/h12H

>  <STRUCTURE_InChIKey>
SMYMJHWAQXWPDB-XWKXFZRBCJ

>  <StudyType>
Carcinogenicity

>  <Endpoint>
TD50; Tumor Target Sites

>  <Species>
rat; mouse

>  <ActivityOutcome_CPDBAS_Mutagenicity>
inactive

>  <ActivityScore_CPDBAS_Rat>
0

>  <TD50_Rat_Note>
no positive results

>  <TargetSites_Rat_Male>
no positive results

>  <TargetSites_Rat_Female>
no positive results

>  <ActivityOutcome_CPDBAS_Rat>
inactive

>  <ActivityScore_CPDBAS_Mouse>
0

>  <TD50_Mouse_Note>
no positive results

>  <TargetSites_Mouse_Male>
no positive results

>  <TargetSites_Mouse_Female>
no positive results

>  <ActivityOutcome_CPDBAS_Mouse>
inactive

>  <ActivityOutcome_CPDBAS_SingleCellCall>
inactive

>  <ActivityOutcome_CPDBAS_MultiCellCall>
inactive

>  <ActivityOutcome_CPDBAS_MultiCellCall_Details>
multisex inactive; multispecies inactive

>  <ChemicalPage_URL>
http://potency.berkeley.edu/chempages/2,4,5-TRICHLOROPHENOXYACETIC%20ACID.html

$$$$



 12 11  0  0  0  0  0  0  0  0999 V2000
    1.3266   -1.9854    0.0000 P   0  0  0  0  0  0  0  0  0  0  0  0
    2.6577   -1.9854    0.0000 C   0  0  3  0  0  0  0  0  0  0  0  0
    3.3299   -3.1372    0.0000 C   0  0  0  0  0  0  0  0  0  0  0  0
    0.0000   -1.9854    0.0000 O   0  0  0  0  0  0  0  0  0  0  0  0
    4.4817   -2.4649    0.0000 Cl  0  0  0  0  0  0  0  0  0  0  0  0
    4.0022   -4.2890    0.0000 Cl  0  0  0  0  0  0  0  0  0  0  0  0
    2.1781   -3.8095    0.0000 Cl  0  0  0  0  0  0  0  0  0  0  0  0
    1.3266   -3.3120    0.0000 O   0  0  0  0  0  0  0  0  0  0  0  0
    1.3266   -0.6543    0.0000 O   0  0  0  0  0  0  0  0  0  0  0  0
    3.3120   -0.8336    0.0000 O   0  0  0  0  0  0  0  0  0  0  0  0
    2.4829    0.0000    0.0000 C   0  0  0  0  0  0  0  0  0  0  0  0
    0.1748   -3.9708    0.0000 C   0  0  0  0  0  0  0  0  0  0  0  0
  1  2  1  0  0  0  0
  1  4  2  0  0  0  0
  1  8  1  0  0  0  0
  1  9  1  0  0  0  0
  2  3  1  0  0  0  0
  2 10  1  0  0  0  0
  3  5  1  0  0  0  0
  3  6  1  0  0  0  0
  3  7  1  0  0  0  0
  8 12  1  0  0  0  0
  9 11  1  0  0  0  0
M  END
>  <DSSTox_RID>
21389

>  <DSSTox_CID>
1389

>  <DSSTox_Generic_SID>
21389

>  <DSSTox_FileID>
1453_CPDBAS_v5d

>  <STRUCTURE_Formula>
C4H8Cl3O4P

>  <STRUCTURE_MolecularWeight>
257.4367

>  <STRUCTURE_ChemicalType>
defined organic

>  <STRUCTURE_TestedForm_DefinedOrganic>
parent

>  <STRUCTURE_Shown>
tested chemical

>  <TestSubstance_ChemicalName>
Trichlorophone

>  <TestSubstance_CASRN>
52-68-6

>  <TestSubstance_Description>
single chemical compound

>  <STRUCTURE_ChemicalName_IUPAC>
dimethyl (2,2,2-trichloro-1-hydroxyethyl)phosphonate

>  <STRUCTURE_SMILES>
OC(C(Cl)(Cl)Cl)P(=O)(OC)OC

>  <STRUCTURE_Parent_SMILES>
OC(C(Cl)(Cl)Cl)P(=O)(OC)OC

>  <STRUCTURE_InChI>
InChI=1/C4H8Cl3O4P/c1-10-12(9,11-2)3(8)4(5,6)7/h3,8H,1-2H3

>  <STRUCTURE_InChIKey>
NFACJZMKEDPNKN-UHFFFAOYAJ

>  <StudyType>
Carcinogenicity

>  <Endpoint>
TD50; Tumor Target Sites

>  <Species>
rat

>  <ActivityOutcome_CPDBAS_Mutagenicity>
active

>  <ActivityScore_CPDBAS_Rat>
0

>  <TD50_Rat_Note>
no positive results

>  <TargetSites_Rat_BothSexes>
no positive results

>  <ActivityOutcome_CPDBAS_Rat>
inactive

>  <ActivityOutcome_CPDBAS_SingleCellCall>
inactive

>  <Note_CPDBAS>
Rat added v2a

>  <ChemicalPage_URL>
http://potency.berkeley.edu/chempages/TRICHLOROPHONE.html

$$$$



  6  5  0  0  0  0  0  0  0  0999 V2000
    2.6616    0.0000    0.0000 Cl  0  0  0  0  0  0  0  0  0  0  0  0
    1.9952   -1.1492    0.0000 C   0  0  0  0  0  0  0  0  0  0  0  0
    2.6616   -2.3025    0.0000 C   0  0  0  0  0  0  0  0  0  0  0  0
    3.9905   -2.3025    0.0000 Cl  0  0  0  0  0  0  0  0  0  0  0  0
    0.6664   -1.1492    0.0000 C   0  0  0  0  0  0  0  0  0  0  0  0
    0.0000   -2.3025    0.0000 Cl  0  0  0  0  0  0  0  0  0  0  0  0
  1  2  1  0  0  0  0
  2  3  1  0  0  0  0
  2  5  1  0  0  0  0
  3  4  1  0  0  0  0
  5  6  1  0  0  0  0
M  END
>  <DSSTox_RID>
21390

>  <DSSTox_CID>
1390

>  <DSSTox_Generic_SID>
21390

>  <DSSTox_FileID>
1454_CPDBAS_v5d

>  <STRUCTURE_Formula>
C3H5Cl3

>  <STRUCTURE_MolecularWeight>
147.4308

>  <STRUCTURE_ChemicalType>
defined organic

>  <STRUCTURE_TestedForm_DefinedOrganic>
parent

>  <STRUCTURE_Shown>
tested chemical

>  <TestSubstance_ChemicalName>
1,2,3-Trichloropropane

>  <TestSubstance_CASRN>
96-18-4

>  <TestSubstance_Description>
single chemical compound

>  <STRUCTURE_ChemicalName_IUPAC>
1,2,3-trichloropropane

>  <STRUCTURE_SMILES>
ClCC(Cl)CCl

>  <STRUCTURE_Parent_SMILES>
ClCC(Cl)CCl

>  <STRUCTURE_InChI>
InChI=1/C3H5Cl3/c4-1-3(6)2-5/h3H,1-2H2

>  <STRUCTURE_InChIKey>
CFXQEHVMCRXUSD-UHFFFAOYAC

>  <StudyType>
Carcinogenicity

>  <Endpoint>
TD50; Tumor Target Sites

>  <Species>
rat; mouse

>  <ActivityOutcome_CPDBAS_Mutagenicity>
active

>  <TD50_Rat_mg>
1.35

>  <TD50_Rat_mmol>
0.00916

>  <ActivityScore_CPDBAS_Rat>
47

>  <TD50_Rat_Note>
TD50 is harmonic mean of more than one positive test

>  <TargetSites_Rat_Male>
ear Zymbals gland; kidney; oral cavity; pancreas; preputial gland; stomach

>  <TargetSites_Rat_Female>
clitoral gland; ear Zymbals gland; mammary gland; oral cavity; stomach

>  <ActivityOutcome_CPDBAS_Rat>
active

>  <TD50_Mouse_mg>
0.875

>  <TD50_Mouse_mmol>
0.00593

>  <ActivityScore_CPDBAS_Mouse>
53

>  <TD50_Mouse_Note>
TD50 is harmonic mean of more than one positive test

>  <TargetSites_Mouse_Male>
harderian gland; liver; stomach

>  <TargetSites_Mouse_Female>
harderian gland; liver; oral cavity; stomach; uterus

>  <ActivityOutcome_CPDBAS_Mouse>
active

>  <ActivityOutcome_CPDBAS_SingleCellCall>
active

>  <ActivityOutcome_CPDBAS_MultiCellCall>
active

>  <ActivityOutcome_CPDBAS_MultiCellCall_Details>
multisite active; multisex active; multispecies active

>  <NTP_TechnicalReport>
TR 384

>  <ChemicalPage_URL>
http://potency.berkeley.edu/chempages/1,2,3-TRICHLOROPROPANE.html

$$$$



 10  9  0  0  0  0  0  0  0  0999 V2000
    0.0000   -3.4540    0.0000 O   0  0  0  0  0  0  0  0  0  0  0  0
    0.6645   -2.3047    0.0000 C   0  0  0  0  0  0  0  0  0  0  0  0
    1.9934   -2.3047    0.0000 C   0  0  0  0  0  0  0  0  0  0  0  0
    2.6578   -1.1493    0.0000 N   0  0  0  0  0  0  0  0  0  0  0  0
    1.9934    0.0000    0.0000 C   0  0  0  0  0  0  0  0  0  0  0  0
    0.6645    0.0000    0.0000 C   0  0  0  0  0  0  0  0  0  0  0  0
    0.0000   -1.1493    0.0000 O   0  0  0  0  0  0  0  0  0  0  0  0
    3.9928   -1.1493    0.0000 C   0  0  0  0  0  0  0  0  0  0  0  0
    4.6572   -2.3047    0.0000 C   0  0  0  0  0  0  0  0  0  0  0  0
    5.9861   -2.3047    0.0000 O   0  0  0  0  0  0  0  0  0  0  0  0
  1  2  1  0  0  0  0
  2  3  1  0  0  0  0
  3  4  1  0  0  0  0
  4  5  1  0  0  0  0
  4  8  1  0  0  0  0
  5  6  1  0  0  0  0
  6  7  1  0  0  0  0
  8  9  1  0  0  0  0
  9 10  1  0  0  0  0
M  END
>  <DSSTox_RID>
21392

>  <DSSTox_CID>
1392

>  <DSSTox_Generic_SID>
21392

>  <DSSTox_FileID>
1456_CPDBAS_v5d

>  <STRUCTURE_Formula>
C6H15NO3

>  <STRUCTURE_MolecularWeight>
149.1882

>  <STRUCTURE_ChemicalType>
defined organic

>  <STRUCTURE_TestedForm_DefinedOrganic>
parent

>  <STRUCTURE_Shown>
tested chemical

>  <TestSubstance_ChemicalName>
Triethanolamine

>  <TestSubstance_CASRN>
102-71-6

>  <TestSubstance_Description>
single chemical compound

>  <STRUCTURE_ChemicalName_IUPAC>
2,2',2''-nitrilotriethanol

>  <STRUCTURE_SMILES>
OCCN(CCO)CCO

>  <STRUCTURE_Parent_SMILES>
OCCN(CCO)CCO

>  <STRUCTURE_InChI>
InChI=1/C6H15NO3/c8-4-1-7(2-5-9)3-6-10/h8-10H,1-6H2

>  <STRUCTURE_InChIKey>
GSEJCLTVZPLZKY-UHFFFAOYAL

>  <StudyType>
Carcinogenicity

>  <Endpoint>
TD50; Tumor Target Sites

>  <Species>
rat; mouse

>  <ActivityOutcome_CPDBAS_Mutagenicity>
inactive

>  <ActivityScore_CPDBAS_Rat>
0

>  <TD50_Rat_Note>
no positive results

>  <TargetSites_Rat_Male>
no positive results

>  <TargetSites_Rat_Female>
no positive results

>  <ActivityOutcome_CPDBAS_Rat>
inactive

>  <TD50_Mouse_mg>
100

>  <TD50_Mouse_mmol>
0.67

>  <ActivityScore_CPDBAS_Mouse>
30

>  <TD50_Mouse_Note>
TD50 is harmonic mean of more than one positive test

>  <TargetSites_Mouse_Male>
all tumor bearing animals

>  <TargetSites_Mouse_Female>
all tumor bearing animals

>  <ActivityOutcome_CPDBAS_Mouse>
active

>  <ActivityOutcome_CPDBAS_SingleCellCall>
active

>  <ActivityOutcome_CPDBAS_MultiCellCall>
active

>  <ActivityOutcome_CPDBAS_MultiCellCall_Details>
multisex active

>  <ChemicalPage_URL>
http://potency.berkeley.edu/chempages/TRIETHANOLAMINE.html

$$$$



 10  9  0  0  0  0  0  0  0  0999 V2000
    0.0000   -0.6638    0.0000 O   0  0  0  0  0  0  0  0  0  0  0  0
    1.1513    0.0000    0.0000 C   0  0  0  0  0  0  0  0  0  0  0  0
    2.3027   -0.6638    0.0000 C   0  0  0  0  0  0  0  0  0  0  0  0
    3.4540    0.0000    0.0000 O   0  0  0  0  0  0  0  0  0  0  0  0
    4.6053   -0.6638    0.0000 C   0  0  0  0  0  0  0  0  0  0  0  0
    5.7670    0.0000    0.0000 C   0  0  0  0  0  0  0  0  0  0  0  0
    6.9184   -0.6638    0.0000 O   0  0  0  0  0  0  0  0  0  0  0  0
    8.0697    0.0000    0.0000 C   0  0  0  0  0  0  0  0  0  0  0  0
    9.2210   -0.6638    0.0000 C   0  0  0  0  0  0  0  0  0  0  0  0
   10.3724    0.0000    0.0000 O   0  0  0  0  0  0  0  0  0  0  0  0
  1  2  1  0  0  0  0
  2  3  1  0  0  0  0
  3  4  1  0  0  0  0
  4  5  1  0  0  0  0
  5  6  1  0  0  0  0
  6  7  1  0  0  0  0
  7  8  1  0  0  0  0
  8  9  1  0  0  0  0
  9 10  1  0  0  0  0
M  END
>  <DSSTox_RID>
21393

>  <DSSTox_CID>
1393

>  <DSSTox_Generic_SID>
21393

>  <DSSTox_FileID>
1457_CPDBAS_v5d

>  <STRUCTURE_Formula>
C6H14O4

>  <STRUCTURE_MolecularWeight>
150.173

>  <STRUCTURE_ChemicalType>
defined organic

>  <STRUCTURE_TestedForm_DefinedOrganic>
parent

>  <STRUCTURE_Shown>
tested chemical

>  <TestSubstance_ChemicalName>
Triethylene glycol

>  <TestSubstance_CASRN>
112-27-6

>  <TestSubstance_Description>
single chemical compound

>  <STRUCTURE_ChemicalName_IUPAC>
2,2'-[ethane-1,2-diylbis(oxy)]diethanol

>  <STRUCTURE_SMILES>
OCCOCCOCCO

>  <STRUCTURE_Parent_SMILES>
OCCOCCOCCO

>  <STRUCTURE_InChI>
InChI=1/C6H14O4/c7-1-3-9-5-6-10-4-2-8/h7-8H,1-6H2

>  <STRUCTURE_InChIKey>
ZIBGPFATKBEMQZ-UHFFFAOYAS

>  <StudyType>
Carcinogenicity

>  <Endpoint>
TD50; Tumor Target Sites

>  <Species>
rat

>  <ActivityOutcome_CPDBAS_Mutagenicity>
active

>  <ActivityScore_CPDBAS_Rat>
0

>  <TD50_Rat_Note>
no positive results

>  <TargetSites_Rat_Male>
no positive results

>  <ActivityOutcome_CPDBAS_Rat>
inactive

>  <ActivityOutcome_CPDBAS_SingleCellCall>
inactive

>  <Note_CPDBAS>
Mutagenicity_SAL_CPDB added v3a

>  <ChemicalPage_URL>
http://potency.berkeley.edu/chempages/TRIETHYLENE%20GLYCOL.html

$$$$



 20 21  0  0  0  0  0  0  0  0999 V2000
   10.9905   -3.0631    0.0000 N   0  3  0  0  0  0  0  0  0  0  0  0
   10.7087   -4.3619    0.0000 O   0  5  0  0  0  0  0  0  0  0  0  0
   12.2525   -2.6465    0.0000 O   0  0  0  0  0  0  0  0  0  0  0  0
    9.9980   -2.1687    0.0000 C   0  0  0  0  0  0  0  0  0  0  0  0
    8.6993   -2.4505    0.0000 O   0  0  0  0  0  0  0  0  0  0  0  0
    8.0376   -1.2988    0.0000 C   0  0  0  0  0  0  0  0  0  0  0  0
    8.9198   -0.3063    0.0000 C   0  0  0  0  0  0  0  0  0  0  0  0
   10.1328   -0.8454    0.0000 C   0  0  0  0  0  0  0  0  0  0  0  0
    6.7144   -1.1517    0.0000 C   0  0  0  0  0  0  0  0  0  0  0  0
    5.8199   -2.1442    0.0000 N   0  0  0  0  0  0  0  0  0  0  0  0
    4.6069   -1.6051    0.0000 C   0  0  0  0  0  0  0  0  0  0  0  0
    4.7417   -0.2818    0.0000 S   0  0  0  0  0  0  0  0  0  0  0  0
    6.0405    0.0000    0.0000 C   0  0  0  0  0  0  0  0  0  0  0  0
    3.4552   -2.2667    0.0000 N   0  0  0  0  0  0  0  0  0  0  0  0
    2.3035   -1.6051    0.0000 C   0  0  0  0  0  0  0  0  0  0  0  0
    2.3035   -0.2696    0.0000 O   0  0  0  0  0  0  0  0  0  0  0  0
    1.1517   -2.2667    0.0000 C   0  0  0  0  0  0  0  0  0  0  0  0
    1.8134   -3.4184    0.0000 F   0  0  0  0  0  0  0  0  0  0  0  0
    0.0000   -2.9283    0.0000 F   0  0  0  0  0  0  0  0  0  0  0  0
    0.4901   -1.1150    0.0000 F   0  0  0  0  0  0  0  0  0  0  0  0
  1  2  1  0  0  0  0
  1  3  2  0  0  0  0
  1  4  1  0  0  0  0
  4  5  1  0  0  0  0
  4  8  2  0  0  0  0
  5  6  1  0  0  0  0
  6  7  2  0  0  0  0
  6  9  1  0  0  0  0
  7  8  1  0  0  0  0
  9 10  1  0  0  0  0
  9 13  2  0  0  0  0
 10 11  2  0  0  0  0
 11 12  1  0  0  0  0
 11 14  1  0  0  0  0
 12 13  1  0  0  0  0
 14 15  1  0  0  0  0
 15 16  2  0  0  0  0
 15 17  1  0  0  0  0
 17 18  1  0  0  0  0
 17 19  1  0  0  0  0
 17 20  1  0  0  0  0
M  END
>  <DSSTox_RID>
21394

>  <DSSTox_CID>
1394

>  <DSSTox_Generic_SID>
21394

>  <DSSTox_FileID>
1458_CPDBAS_v5d

>  <STRUCTURE_Formula>
C9H4F3N3O4S

>  <STRUCTURE_MolecularWeight>
307.2035

>  <STRUCTURE_ChemicalType>
defined organic

>  <STRUCTURE_TestedForm_DefinedOrganic>
parent

>  <STRUCTURE_Shown>
tested chemical

>  <TestSubstance_ChemicalName>
2,2,2-Trifluoro-N-[4-(5-nitro-2-furyl)-2-thiazolyl]acetamide

>  <TestSubstance_CASRN>
42011-48-3

>  <TestSubstance_Description>
single chemical compound

>  <STRUCTURE_ChemicalName_IUPAC>
2,2,2-trifluoro-N-[4-(5-nitrofuran-2-yl)-1,3-thiazol-2-yl]acetamide

>  <STRUCTURE_SMILES>
[O-][N+](C1=CC=C(C2=CSC(NC(C(F)(F)F)=O)=N2)O1)=O

>  <STRUCTURE_Parent_SMILES>
[O-][N+](C1=CC=C(C2=CSC(NC(C(F)(F)F)=O)=N2)O1)=O

>  <STRUCTURE_InChI>
InChI=1/C9H4F3N3O4S/c10-9(11,12)7(16)14-8-13-4(3-20-8)5-1-2-6(19-5)15(17)18/h1-3H,(H,13,14,16)/f/h14H

>  <STRUCTURE_InChIKey>
GMHPROGCQPQRLG-YHMJCDSICM

>  <StudyType>
Carcinogenicity

>  <Endpoint>
TD50; Tumor Target Sites

>  <Species>
rat; mouse

>  <ActivityOutcome_CPDBAS_Mutagenicity>
active

>  <TD50_Rat_mg>
6.79

>  <TD50_Rat_mmol>
0.0221

>  <ActivityScore_CPDBAS_Rat>
43

>  <TargetSites_Rat_Female>
mammary gland

>  <ActivityOutcome_CPDBAS_Rat>
active

>  <TD50_Mouse_mg>
9.98

>  <TD50_Mouse_mmol>
0.0325

>  <ActivityScore_CPDBAS_Mouse>
45

>  <TargetSites_Mouse_Female>
stomach

>  <ActivityOutcome_CPDBAS_Mouse>
active

>  <ActivityOutcome_CPDBAS_SingleCellCall>
active

>  <ActivityOutcome_CPDBAS_MultiCellCall>
active

>  <ActivityOutcome_CPDBAS_MultiCellCall_Details>
multisite active; multispecies active

>  <ChemicalPage_URL>
http://potency.berkeley.edu/chempages/2,2,2-TRIFLUORO-N-[4-(5-NITRO-2-FURYL)-2-THIAZOLYL.html

$$$$



 23 23  0  0  0  0  0  0  0  0999 V2000
    5.7594    0.0000    0.0000 O   0  0  0  0  0  0  0  0  0  0  0  0
    5.7594   -1.3362    0.0000 N   0  3  0  0  0  0  0  0  0  0  0  0
    4.6075   -1.9997    0.0000 C   0  0  0  0  0  0  0  0  0  0  0  0
    4.6075   -3.3266    0.0000 C   0  0  0  0  0  0  0  0  0  0  0  0
    3.4557   -3.9901    0.0000 C   0  0  0  0  0  0  0  0  0  0  0  0
    2.3038   -3.3266    0.0000 C   0  0  0  0  0  0  0  0  0  0  0  0
    2.3038   -1.9997    0.0000 C   0  0  0  0  0  0  0  0  0  0  0  0
    3.4557   -1.3362    0.0000 C   0  0  0  0  0  0  0  0  0  0  0  0
    1.1519   -1.3362    0.0000 C   0  0  0  0  0  0  0  0  0  0  0  0
    1.8154   -0.1843    0.0000 F   0  0  0  0  0  0  0  0  0  0  0  0
    0.4884   -2.4881    0.0000 F   0  0  0  0  0  0  0  0  0  0  0  0
    0.0000   -0.6727    0.0000 F   0  0  0  0  0  0  0  0  0  0  0  0
    3.4557   -5.3263    0.0000 N   0  3  0  0  0  0  0  0  0  0  0  0
    4.6075   -5.9898    0.0000 O   0  0  0  0  0  0  0  0  0  0  0  0
    2.3038   -5.9898    0.0000 O   0  5  0  0  0  0  0  0  0  0  0  0
    5.7594   -3.9901    0.0000 N   0  0  0  0  0  0  0  0  0  0  0  0
    6.9113   -3.3266    0.0000 C   0  0  0  0  0  0  0  0  0  0  0  0
    8.0632   -3.9901    0.0000 C   0  0  0  0  0  0  0  0  0  0  0  0
    9.2151   -3.3266    0.0000 C   0  0  0  0  0  0  0  0  0  0  0  0
    5.7594   -5.3263    0.0000 C   0  0  0  0  0  0  0  0  0  0  0  0
    6.9113   -5.9898    0.0000 C   0  0  0  0  0  0  0  0  0  0  0  0
    8.0632   -5.3263    0.0000 C   0  0  0  0  0  0  0  0  0  0  0  0
    6.9113   -1.9997    0.0000 O   0  5  0  0  0  0  0  0  0  0  0  0
  1  2  2  0  0  0  0
  2  3  1  0  0  0  0
  2 23  1  0  0  0  0
  3  4  2  0  0  0  0
  3  8  1  0  0  0  0
  4  5  1  0  0  0  0
  4 16  1  0  0  0  0
  5  6  2  0  0  0  0
  5 13  1  0  0  0  0
  6  7  1  0  0  0  0
  7  8  2  0  0  0  0
  7  9  1  0  0  0  0
  9 10  1  0  0  0  0
  9 11  1  0  0  0  0
  9 12  1  0  0  0  0
 13 14  2  0  0  0  0
 13 15  1  0  0  0  0
 16 17  1  0  0  0  0
 16 20  1  0  0  0  0
 17 18  1  0  0  0  0
 18 19  1  0  0  0  0
 20 21  1  0  0  0  0
 21 22  1  0  0  0  0
M  END
>  <DSSTox_RID>
21395

>  <DSSTox_CID>
1395

>  <DSSTox_Generic_SID>
24369

>  <DSSTox_FileID>
1459_CPDBAS_v5d

>  <STRUCTURE_Formula>
C13H16F3N3O4

>  <STRUCTURE_MolecularWeight>
335.2823

>  <STRUCTURE_ChemicalType>
defined organic

>  <STRUCTURE_TestedForm_DefinedOrganic>
parent

>  <STRUCTURE_Shown>
tested chemical

>  <TestSubstance_ChemicalName>
Trifluralin, technical grade

>  <TestSubstance_CASRN>
1582-09-8

>  <TestSubstance_Description>
single chemical compound

>  <STRUCTURE_ChemicalName_IUPAC>
2,6-dinitro-N,N-dipropyl-4-(trifluoromethyl)aniline

>  <STRUCTURE_SMILES>
O=[N+](C1=C(C(=CC(=C1)C(F)(F)F)[N+](=O)[O-])N(CCC)CCC)[O-]

>  <STRUCTURE_Parent_SMILES>
O=[N+](C1=C(C(=CC(=C1)C(F)(F)F)[N+](=O)[O-])N(CCC)CCC)[O-]

>  <STRUCTURE_InChI>
InChI=1/C13H16F3N3O4/c1-3-5-17(6-4-2)12-10(18(20)21)7-9(13(14,15)16)8-11(12)19(22)23/h7-8H,3-6H2,1-2H3

>  <STRUCTURE_InChIKey>
ZSDSQXJSNMTJDA-UHFFFAOYAB

>  <StudyType>
Carcinogenicity

>  <Endpoint>
TD50; Tumor Target Sites

>  <Species>
rat; mouse

>  <ActivityOutcome_CPDBAS_Mutagenicity>
active

>  <ActivityScore_CPDBAS_Rat>
0

>  <TD50_Rat_Note>
no positive results

>  <TargetSites_Rat_Male>
no positive results

>  <TargetSites_Rat_Female>
no positive results

>  <ActivityOutcome_CPDBAS_Rat>
inactive

>  <TD50_Mouse_mg>
330

>  <TD50_Mouse_mmol>
0.984

>  <ActivityScore_CPDBAS_Mouse>
28

>  <TargetSites_Mouse_Male>
no positive results

>  <TargetSites_Mouse_Female>
liver; lung; stomach

>  <ActivityOutcome_CPDBAS_Mouse>
active

>  <ActivityOutcome_CPDBAS_SingleCellCall>
active

>  <ActivityOutcome_CPDBAS_MultiCellCall>
active

>  <ActivityOutcome_CPDBAS_MultiCellCall_Details>
multisite active

>  <NTP_TechnicalReport>
TR 34

>  <ChemicalPage_URL>
http://potency.berkeley.edu/chempages/TRIFLURALIN,%20TECHNICAL%20GRADE.html

$$$$



 10 10  0  0  0  0  0  0  0  0999 V2000
    3.4260    0.0000    0.0000 C   0  0  0  0  0  0  0  0  0  0  0  0
    3.2875   -1.3252    0.0000 C   0  0  0  0  0  0  0  0  0  0  0  0
    3.4260   -2.6457    0.0000 C   0  0  0  0  0  0  0  0  0  0  0  0
    4.5803   -3.3106    0.0000 O   0  0  0  0  0  0  0  0  0  0  0  0
    2.2117   -3.1859    0.0000 N   0  0  0  0  0  0  0  0  0  0  0  0
    1.9346   -4.4880    0.0000 C   0  0  0  0  0  0  0  0  0  0  0  0
    1.3205   -2.1978    0.0000 C   0  0  0  0  0  0  0  0  0  0  0  0
    0.0000   -2.3363    0.0000 O   0  0  0  0  0  0  0  0  0  0  0  0
    1.9854   -1.0481    0.0000 O   0  0  0  0  0  0  0  0  0  0  0  0
    4.6173   -1.3252    0.0000 C   0  0  0  0  0  0  0  0  0  0  0  0
  1  2  1  0  0  0  0
  2  3  1  0  0  0  0
  2  9  1  0  0  0  0
  2 10  1  0  0  0  0
  3  4  2  0  0  0  0
  3  5  1  0  0  0  0
  5  6  1  0  0  0  0
  5  7  1  0  0  0  0
  7  8  2  0  0  0  0
  7  9  1  0  0  0  0
M  END
>  <DSSTox_RID>
21396

>  <DSSTox_CID>
1396

>  <DSSTox_Generic_SID>
21396

>  <DSSTox_FileID>
1460_CPDBAS_v5d

>  <STRUCTURE_Formula>
C6H9NO3

>  <STRUCTURE_MolecularWeight>
143.142

>  <STRUCTURE_ChemicalType>
defined organic

>  <STRUCTURE_TestedForm_DefinedOrganic>
parent

>  <STRUCTURE_Shown>
tested chemical

>  <TestSubstance_ChemicalName>
Trimethadione

>  <TestSubstance_CASRN>
127-48-0

>  <TestSubstance_Description>
single chemical compound

>  <STRUCTURE_ChemicalName_IUPAC>
3,5,5-trimethyl-1,3-oxazolidine-2,4-dione

>  <STRUCTURE_SMILES>
CC1(C(=O)N(C)C(=O)O1)C

>  <STRUCTURE_Parent_SMILES>
CC1(C(=O)N(C)C(=O)O1)C

>  <STRUCTURE_InChI>
InChI=1/C6H9NO3/c1-6(2)4(8)7(3)5(9)10-6/h1-3H3

>  <STRUCTURE_InChIKey>
IRYJRGCIQBGHIV-UHFFFAOYAZ

>  <StudyType>
Carcinogenicity

>  <Endpoint>
TD50; Tumor Target Sites

>  <Species>
rat

>  <ActivityScore_CPDBAS_Rat>
0

>  <TD50_Rat_Note>
no positive results

>  <TargetSites_Rat_Male>
no positive results

>  <ActivityOutcome_CPDBAS_Rat>
inactive

>  <ActivityOutcome_CPDBAS_SingleCellCall>
inactive

>  <ChemicalPage_URL>
http://potency.berkeley.edu/chempages/TRIMETHADIONE.html

$$$$



 26 27  0  0  0  0  0  0  0  0999 V2000
    3.4494   -3.3353    0.0000 C   0  0  0  0  0  0  0  0  0  0  0  0
    4.6034   -3.9947    0.0000 C   0  0  3  0  0  0  0  0  0  0  0  0
    2.3081   -3.9947    0.0000 C   0  0  0  0  0  0  0  0  0  0  0  0
    3.4494   -2.0037    0.0000 C   0  0  0  0  0  0  0  0  0  0  0  0
    4.6034   -5.3263    0.0000 C   0  0  0  0  0  0  0  0  0  0  0  0
    5.7575   -3.3353    0.0000 C   0  0  0  0  0  0  0  0  0  0  0  0
    1.1540   -3.3353    0.0000 C   0  0  0  0  0  0  0  0  0  0  0  0
    2.3081   -5.3263    0.0000 C   0  0  0  0  0  0  0  0  0  0  0  0
    2.3081   -1.3316    0.0000 C   0  0  0  0  0  0  0  0  0  0  0  0
    4.6034   -1.3316    0.0000 O   0  0  0  0  0  0  0  0  0  0  0  0
    5.7575   -5.9984    0.0000 C   0  0  0  0  0  0  0  0  0  0  0  0
    3.4494   -5.9984    0.0000 C   0  0  0  0  0  0  0  0  0  0  0  0
    6.9242   -3.9947    0.0000 C   0  0  0  0  0  0  0  0  0  0  0  0
    1.1540   -2.0037    0.0000 C   0  0  0  0  0  0  0  0  0  0  0  0
    0.0000   -3.9947    0.0000 O   0  0  0  0  0  0  0  0  0  0  0  0
    2.3081    0.0000    0.0000 C   0  0  0  0  0  0  0  0  0  0  0  0
    5.7575   -7.3173    0.0000 C   0  0  0  0  0  0  0  0  0  0  0  0
    3.4494   -7.3173    0.0000 C   0  0  0  0  0  0  0  0  0  0  0  0
    8.0782   -3.3353    0.0000 C   0  0  0  0  0  0  0  0  0  0  0  0
    0.0000   -1.3316    0.0000 C   0  0  0  0  0  0  0  0  0  0  0  0
    4.6034   -7.9894    0.0000 C   0  0  0  0  0  0  0  0  0  0  0  0
    9.2196   -3.9947    0.0000 C   0  0  0  0  0  0  0  0  0  0  0  0
   10.3736   -3.3353    0.0000 C   0  0  0  0  0  0  0  0  0  0  0  0
   11.5276   -3.9947    0.0000 C   0  0  0  0  0  0  0  0  0  0  0  0
   12.6817   -3.3353    0.0000 O   0  0  0  0  0  0  0  0  0  0  0  0
   11.5276   -5.3263    0.0000 O   0  0  0  0  0  0  0  0  0  0  0  0
  1  2  1  0  0  0  0
  1  3  2  0  0  0  0
  1  4  1  0  0  0  0
  2  5  1  0  0  0  0
  2  6  1  0  0  0  0
  3  7  1  0  0  0  0
  3  8  1  0  0  0  0
  4  9  1  0  0  0  0
  4 10  2  0  0  0  0
  5 11  1  0  0  0  0
  5 12  2  0  0  0  0
  6 13  1  0  0  0  0
  7 14  1  0  0  0  0
  7 15  2  0  0  0  0
  9 16  1  0  0  0  0
  9 14  2  0  0  0  0
 11 17  2  0  0  0  0
 12 18  1  0  0  0  0
 13 19  1  0  0  0  0
 14 20  1  0  0  0  0
 17 21  1  0  0  0  0
 18 21  2  0  0  0  0
 19 22  1  0  0  0  0
 22 23  1  0  0  0  0
 23 24  1  0  0  0  0
 24 25  1  0  0  0  0
 24 26  2  0  0  0  0
M  END
>  <DSSTox_RID>
21397

>  <DSSTox_CID>
1397

>  <DSSTox_Generic_SID>
21397

>  <DSSTox_FileID>
1461_CPDBAS_v5d

>  <STRUCTURE_Formula>
C22H26O4

>  <STRUCTURE_MolecularWeight>
354.4394

>  <STRUCTURE_ChemicalType>
defined organic

>  <STRUCTURE_TestedForm_DefinedOrganic>
parent

>  <STRUCTURE_Shown>
tested chemical

>  <TestSubstance_ChemicalName>
(+-)-7-(3,5,6-trimethyl-1,4-benzoquinon-2-yl)-7-phenylheptanoic acid

>  <TestSubstance_CASRN>
112665-43-7

>  <TestSubstance_Description>
single chemical compound

>  <ChemicalNote>
seratrodast

>  <STRUCTURE_ChemicalName_IUPAC>
7-phenyl-7-(2,4,5-trimethyl-3,6-dioxocyclohexa-1,4-dien-1-yl)heptanoic acid

>  <STRUCTURE_SMILES>
O=C(C(C)=C2C)C(C(CCCCCC(O)=O)C1=CC=CC=C1)=C(C)C2=O

>  <STRUCTURE_Parent_SMILES>
O=C(C(C)=C2C)C(C(CCCCCC(O)=O)C1=CC=CC=C1)=C(C)C2=O

>  <STRUCTURE_InChI>
InChI=1/C22H26O4/c1-14-15(2)22(26)20(16(3)21(14)25)18(17-10-6-4-7-11-17)12-8-5-9-13-19(23)24/h4,6-7,10-11,18H,5,8-9,12-13H2,1-3H3,(H,23,24)/f/h23H

>  <STRUCTURE_InChIKey>
ZBVKEHDGYSLCCC-MPIMZMORCO

>  <StudyType>
Carcinogenicity

>  <Endpoint>
TD50; Tumor Target Sites

>  <Species>
rat

>  <ActivityScore_CPDBAS_Rat>
0

>  <TD50_Rat_Note>
no positive results

>  <TargetSites_Rat_Male>
no positive results

>  <TargetSites_Rat_Female>
no positive results

>  <ActivityOutcome_CPDBAS_Rat>
inactive

>  <ActivityOutcome_CPDBAS_SingleCellCall>
inactive

>  <ActivityOutcome_CPDBAS_MultiCellCall>
inactive

>  <ActivityOutcome_CPDBAS_MultiCellCall_Details>
multisex inactive

>  <Note_CPDBAS>
Rat added v3a; chemical added v3a

>  <ChemicalPage_URL>
http://potency.berkeley.edu/chempages/(+-)-7-(3,5,6-TRIMETHYL-1,4-BENZOQUINON-2-YL)-7-PH.html

$$$$



 10 10  0  0  0  0  0  0  0  0999 V2000
    4.6084   -2.6590    0.0000 C   0  0  0  0  0  0  0  0  0  0  0  0
    3.4563   -1.9954    0.0000 C   0  0  0  0  0  0  0  0  0  0  0  0
    2.3042   -2.6590    0.0000 C   0  0  0  0  0  0  0  0  0  0  0  0
    1.1521   -1.9954    0.0000 C   0  0  0  0  0  0  0  0  0  0  0  0
    1.1521   -0.6636    0.0000 C   0  0  0  0  0  0  0  0  0  0  0  0
    2.3042    0.0000    0.0000 C   0  0  0  0  0  0  0  0  0  0  0  0
    3.4563   -0.6636    0.0000 C   0  0  0  0  0  0  0  0  0  0  0  0
    4.6084    0.0000    0.0000 C   0  0  0  0  0  0  0  0  0  0  0  0
    0.0000    0.0000    0.0000 N   0  0  0  0  0  0  0  0  0  0  0  0
    0.0000   -2.6590    0.0000 C   0  0  0  0  0  0  0  0  0  0  0  0
  1  2  1  0  0  0  0
  2  3  2  0  0  0  0
  2  7  1  0  0  0  0
  3  4  1  0  0  0  0
  4  5  2  0  0  0  0
  4 10  1  0  0  0  0
  5  6  1  0  0  0  0
  5  9  1  0  0  0  0
  6  7  2  0  0  0  0
  7  8  1  0  0  0  0
M  END
>  <DSSTox_RID>
21398

>  <DSSTox_CID>
1398

>  <DSSTox_Generic_SID>
21398

>  <DSSTox_FileID>
1462_CPDBAS_v5d

>  <STRUCTURE_Formula>
C9H13N

>  <STRUCTURE_MolecularWeight>
135.2062

>  <STRUCTURE_ChemicalType>
defined organic

>  <STRUCTURE_TestedForm_DefinedOrganic>
parent

>  <STRUCTURE_Shown>
tested chemical

>  <TestSubstance_ChemicalName>
2,4,5-Trimethylaniline

>  <TestSubstance_CASRN>
137-17-7

>  <TestSubstance_Description>
single chemical compound

>  <STRUCTURE_ChemicalName_IUPAC>
2,4,5-trimethylaniline

>  <STRUCTURE_SMILES>
CC1=CC(=C(C=C1C)N)C

>  <STRUCTURE_Parent_SMILES>
CC1=CC(=C(C=C1C)N)C

>  <STRUCTURE_InChI>
InChI=1/C9H13N/c1-6-4-8(3)9(10)5-7(6)2/h4-5H,10H2,1-3H3

>  <STRUCTURE_InChIKey>
BMIPMKQAAJKBKP-UHFFFAOYAK

>  <StudyType>
Carcinogenicity

>  <Endpoint>
TD50; Tumor Target Sites

>  <Species>
rat; mouse

>  <ActivityOutcome_CPDBAS_Mutagenicity>
active

>  <TD50_Rat_mg>
33.6

>  <TD50_Rat_mmol>
0.249

>  <ActivityScore_CPDBAS_Rat>
32

>  <TD50_Rat_Note>
TD50 is harmonic mean of more than one positive test

>  <TargetSites_Rat_Male>
liver

>  <TargetSites_Rat_Female>
liver; lung

>  <ActivityOutcome_CPDBAS_Rat>
active

>  <TD50_Mouse_mg>
6.13

>  <TD50_Mouse_mmol>
0.0453

>  <ActivityScore_CPDBAS_Mouse>
43

>  <TargetSites_Mouse_Male>
no positive results

>  <TargetSites_Mouse_Female>
liver

>  <ActivityOutcome_CPDBAS_Mouse>
active

>  <ActivityOutcome_CPDBAS_SingleCellCall>
active

>  <ActivityOutcome_CPDBAS_MultiCellCall>
active

>  <ActivityOutcome_CPDBAS_MultiCellCall_Details>
multisite active; multisex active; multispecies active

>  <NTP_TechnicalReport>
TR 160

>  <ChemicalPage_URL>
http://potency.berkeley.edu/chempages/2,4,5-TRIMETHYLANILINE.html

$$$$



  9  9  0  0  0  0  0  0  0  0999 V2000
    0.0000   -2.6589    0.0000 C   0  0  0  0  0  0  0  0  0  0  0  0
    1.1520   -1.9953    0.0000 C   0  0  0  0  0  0  0  0  0  0  0  0
    1.1520   -0.6636    0.0000 C   0  0  0  0  0  0  0  0  0  0  0  0
    2.3041    0.0000    0.0000 C   0  0  0  0  0  0  0  0  0  0  0  0
    3.4561   -0.6636    0.0000 C   0  0  0  0  0  0  0  0  0  0  0  0
    3.4561   -1.9953    0.0000 C   0  0  0  0  0  0  0  0  0  0  0  0
    2.3041   -2.6589    0.0000 C   0  0  0  0  0  0  0  0  0  0  0  0
    4.6082   -2.6589    0.0000 C   0  0  0  0  0  0  0  0  0  0  0  0
    0.0000    0.0000    0.0000 C   0  0  0  0  0  0  0  0  0  0  0  0
  1  2  1  0  0  0  0
  2  3  2  0  0  0  0
  2  7  1  0  0  0  0
  3  4  1  0  0  0  0
  3  9  1  0  0  0  0
  4  5  2  0  0  0  0
  5  6  1  0  0  0  0
  6  7  2  0  0  0  0
  6  8  1  0  0  0  0
M  END
>  <DSSTox_RID>
21402

>  <DSSTox_CID>
1402

>  <DSSTox_Generic_SID>
21402

>  <DSSTox_FileID>
1466_CPDBAS_v5d

>  <STRUCTURE_Formula>
C9H12

>  <STRUCTURE_MolecularWeight>
120.1916

>  <STRUCTURE_ChemicalType>
defined organic

>  <STRUCTURE_TestedForm_DefinedOrganic>
parent

>  <STRUCTURE_Shown>
tested chemical

>  <TestSubstance_ChemicalName>
1,2,4-Trimethylbenzene

>  <TestSubstance_CASRN>
95-63-6

>  <TestSubstance_Description>
single chemical compound

>  <STRUCTURE_ChemicalName_IUPAC>
1,2,4-trimethylbenzene

>  <STRUCTURE_SMILES>
CC1=C(C=CC(=C1)C)C

>  <STRUCTURE_Parent_SMILES>
CC1=C(C=CC(=C1)C)C

>  <STRUCTURE_InChI>
InChI=1/C9H12/c1-7-4-5-8(2)9(3)6-7/h4-6H,1-3H3

>  <STRUCTURE_InChIKey>
GWHJZXXIDMPWGX-UHFFFAOYAF

>  <StudyType>
Carcinogenicity

>  <Endpoint>
TD50; Tumor Target Sites

>  <Species>
rat

>  <TD50_Rat_mg>
4350

>  <TD50_Rat_mmol>
36.2

>  <ActivityScore_CPDBAS_Rat>
10

>  <TargetSites_Rat_Male>
Maltoni head cancers

>  <TargetSites_Rat_Female>
no positive results

>  <ActivityOutcome_CPDBAS_Rat>
active

>  <ActivityOutcome_CPDBAS_SingleCellCall>
active

>  <ChemicalPage_URL>
http://potency.berkeley.edu/chempages/1,2,4-TRIMETHYLBENZENE.html

$$$$



  8  7  0  0  0  0  0  0  0  0999 V2000
    3.3237   -1.9950    0.0000 O   0  0  0  0  0  0  0  0  0  0  0  0
    1.9950   -1.9950    0.0000 P   0  0  0  0  0  0  0  0  0  0  0  0
    1.9950   -3.3237    0.0000 O   0  0  0  0  0  0  0  0  0  0  0  0
    3.1481   -3.9900    0.0000 C   0  0  0  0  0  0  0  0  0  0  0  0
    0.6663   -1.9950    0.0000 O   0  0  0  0  0  0  0  0  0  0  0  0
    0.0000   -3.1481    0.0000 C   0  0  0  0  0  0  0  0  0  0  0  0
    1.9950   -0.6663    0.0000 O   0  0  0  0  0  0  0  0  0  0  0  0
    3.1481    0.0000    0.0000 C   0  0  0  0  0  0  0  0  0  0  0  0
  1  2  2  0  0  0  0
  2  3  1  0  0  0  0
  2  5  1  0  0  0  0
  2  7  1  0  0  0  0
  3  4  1  0  0  0  0
  5  6  1  0  0  0  0
  7  8  1  0  0  0  0
M  END
>  <DSSTox_RID>
21403

>  <DSSTox_CID>
1403

>  <DSSTox_Generic_SID>
21403

>  <DSSTox_FileID>
1467_CPDBAS_v5d

>  <STRUCTURE_Formula>
C3H9O4P

>  <STRUCTURE_MolecularWeight>
140.0749

>  <STRUCTURE_ChemicalType>
defined organic

>  <STRUCTURE_TestedForm_DefinedOrganic>
parent

>  <STRUCTURE_Shown>
tested chemical

>  <TestSubstance_ChemicalName>
Trimethylphosphate

>  <TestSubstance_CASRN>
512-56-1

>  <TestSubstance_Description>
single chemical compound

>  <STRUCTURE_ChemicalName_IUPAC>
trimethyl phosphate

>  <STRUCTURE_SMILES>
O=P(OC)(OC)OC

>  <STRUCTURE_Parent_SMILES>
O=P(OC)(OC)OC

>  <STRUCTURE_InChI>
InChI=1/C3H9O4P/c1-5-8(4,6-2)7-3/h1-3H3

>  <STRUCTURE_InChIKey>
WVLBCYQITXONBZ-UHFFFAOYAV

>  <StudyType>
Carcinogenicity

>  <Endpoint>
TD50; Tumor Target Sites

>  <Species>
rat; mouse

>  <ActivityOutcome_CPDBAS_Mutagenicity>
active

>  <ActivityScore_CPDBAS_Rat>
0

>  <TD50_Rat_Note>
no positive results

>  <TargetSites_Rat_Male>
no positive results

>  <TargetSites_Rat_Female>
no positive results

>  <ActivityOutcome_CPDBAS_Rat>
inactive

>  <TD50_Mouse_mg>
335

>  <TD50_Mouse_mmol>
2.39

>  <ActivityScore_CPDBAS_Mouse>
24

>  <TargetSites_Mouse_Male>
no positive results

>  <TargetSites_Mouse_Female>
uterus

>  <ActivityOutcome_CPDBAS_Mouse>
active

>  <ActivityOutcome_CPDBAS_SingleCellCall>
active

>  <Note_CPDBAS>
TargetSites_Rat modified v3a

>  <NTP_TechnicalReport>
TR 81; NTP-assigned level of evidence of carcinogenicity is "positive" in male rat; noting that "these experiments were particularly difficult to evaluate".

>  <ChemicalPage_URL>
http://potency.berkeley.edu/chempages/TRIMETHYLPHOSPHATE.html

$$$$



  7  6  0  0  0  0  0  0  0  0999 V2000
    0.0000   -2.3052    0.0000 S   0  0  0  0  0  0  0  0  0  0  0  0
    1.3306   -2.3052    0.0000 C   0  0  0  0  0  0  0  0  0  0  0  0
    1.9941   -1.1508    0.0000 N   0  0  0  0  0  0  0  0  0  0  0  0
    3.3247   -1.1508    0.0000 C   0  0  0  0  0  0  0  0  0  0  0  0
    1.3306    0.0000    0.0000 C   0  0  0  0  0  0  0  0  0  0  0  0
    1.9941   -3.4560    0.0000 N   0  0  0  0  0  0  0  0  0  0  0  0
    3.3247   -3.4560    0.0000 C   0  0  0  0  0  0  0  0  0  0  0  0
  1  2  2  0  0  0  0
  2  3  1  0  0  0  0
  2  6  1  0  0  0  0
  3  4  1  0  0  0  0
  3  5  1  0  0  0  0
  6  7  1  0  0  0  0
M  END
>  <DSSTox_RID>
21404

>  <DSSTox_CID>
1404

>  <DSSTox_Generic_SID>
21404

>  <DSSTox_FileID>
1468_CPDBAS_v5d

>  <STRUCTURE_Formula>
C4H10N2S

>  <STRUCTURE_MolecularWeight>
118.2006

>  <STRUCTURE_ChemicalType>
defined organic

>  <STRUCTURE_TestedForm_DefinedOrganic>
parent

>  <STRUCTURE_Shown>
tested chemical

>  <TestSubstance_ChemicalName>
Trimethylthiourea

>  <TestSubstance_CASRN>
2489-77-2

>  <TestSubstance_Description>
single chemical compound

>  <STRUCTURE_ChemicalName_IUPAC>
1,1,3-trimethylthiourea

>  <STRUCTURE_SMILES>
S=C(N(C)C)NC

>  <STRUCTURE_Parent_SMILES>
S=C(N(C)C)NC

>  <STRUCTURE_InChI>
InChI=1/C4H10N2S/c1-5-4(7)6(2)3/h1-3H3,(H,5,7)/f/h5H

>  <STRUCTURE_InChIKey>
JAEZSIYNWDWMMN-JSWHHWTPCD

>  <StudyType>
Carcinogenicity

>  <Endpoint>
TD50; Tumor Target Sites

>  <Species>
rat; mouse

>  <ActivityOutcome_CPDBAS_Mutagenicity>
inactive

>  <TD50_Rat_mg>
25.8

>  <TD50_Rat_mmol>
0.218

>  <ActivityScore_CPDBAS_Rat>
33

>  <TargetSites_Rat_Male>
no positive results

>  <TargetSites_Rat_Female>
thyroid gland

>  <ActivityOutcome_CPDBAS_Rat>
active

>  <ActivityScore_CPDBAS_Mouse>
0

>  <TD50_Mouse_Note>
no positive results

>  <TargetSites_Mouse_Male>
no positive results

>  <TargetSites_Mouse_Female>
no positive results

>  <ActivityOutcome_CPDBAS_Mouse>
inactive

>  <ActivityOutcome_CPDBAS_SingleCellCall>
active

>  <NTP_TechnicalReport>
TR 129

>  <ChemicalPage_URL>
http://potency.berkeley.edu/chempages/TRIMETHYLTHIOUREA.html

$$$$



 21 21  0  0  0  0  0  0  0  0999 V2000
    1.3315   -4.7845    0.0000 C   0  0  0  0  0  0  0  0  0  0  0  0
    1.3315   -3.4604    0.0000 C   0  0  0  0  0  0  0  0  0  0  0  0
    2.6629   -3.4604    0.0000 C   0  0  0  0  0  0  0  0  0  0  0  0
    3.3287   -2.3045    0.0000 C   0  0  0  0  0  0  0  0  0  0  0  0
    4.6528   -2.3045    0.0000 C   0  0  0  0  0  0  0  0  0  0  0  0
    5.3186   -3.4604    0.0000 C   0  0  0  0  0  0  0  0  0  0  0  0
    4.6528   -4.6089    0.0000 C   0  0  0  0  0  0  0  0  0  0  0  0
    3.3287   -4.6089    0.0000 C   0  0  0  0  0  0  0  0  0  0  0  0
    2.6629   -5.7648    0.0000 N   0  3  0  0  0  0  0  0  0  0  0  0
    3.3287   -6.9134    0.0000 O   0  0  0  0  0  0  0  0  0  0  0  0
    1.3315   -5.7648    0.0000 O   0  5  0  0  0  0  0  0  0  0  0  0
    5.3186   -5.7648    0.0000 C   0  0  0  0  0  0  0  0  0  0  0  0
    6.6500   -3.4604    0.0000 N   0  3  0  0  0  0  0  0  0  0  0  0
    7.3158   -2.3045    0.0000 O   0  0  0  0  0  0  0  0  0  0  0  0
    7.3158   -4.6089    0.0000 O   0  5  0  0  0  0  0  0  0  0  0  0
    5.3186   -1.1559    0.0000 C   0  0  0  0  0  0  0  0  0  0  0  0
    2.6629   -1.1559    0.0000 N   0  3  0  0  0  0  0  0  0  0  0  0
    1.3315   -1.1559    0.0000 O   0  0  0  0  0  0  0  0  0  0  0  0
    3.3287    0.0000    0.0000 O   0  5  0  0  0  0  0  0  0  0  0  0
    0.0000   -3.4604    0.0000 C   0  0  0  0  0  0  0  0  0  0  0  0
    1.3315   -2.1289    0.0000 C   0  0  0  0  0  0  0  0  0  0  0  0
  1  2  1  0  0  0  0
  2  3  1  0  0  0  0
  2 20  1  0  0  0  0
  2 21  1  0  0  0  0
  3  4  2  0  0  0  0
  3  8  1  0  0  0  0
  4  5  1  0  0  0  0
  4 17  1  0  0  0  0
  5  6  2  0  0  0  0
  5 16  1  0  0  0  0
  6  7  1  0  0  0  0
  6 13  1  0  0  0  0
  7  8  2  0  0  0  0
  7 12  1  0  0  0  0
  8  9  1  0  0  0  0
  9 10  2  0  0  0  0
  9 11  1  0  0  0  0
 13 14  2  0  0  0  0
 13 15  1  0  0  0  0
 17 18  2  0  0  0  0
 17 19  1  0  0  0  0
M  END
>  <DSSTox_RID>
21405

>  <DSSTox_CID>
1405

>  <DSSTox_Generic_SID>
21405

>  <DSSTox_FileID>
1469_CPDBAS_v5d

>  <STRUCTURE_Formula>
C12H15N3O6

>  <STRUCTURE_MolecularWeight>
297.267

>  <STRUCTURE_ChemicalType>
defined organic

>  <STRUCTURE_TestedForm_DefinedOrganic>
parent

>  <STRUCTURE_Shown>
tested chemical

>  <TestSubstance_ChemicalName>
2,4,6-Trinitro-1,3-dimethyl-5-tert-butylbenzene

>  <TestSubstance_CASRN>
81-15-2

>  <TestSubstance_Description>
single chemical compound

>  <STRUCTURE_ChemicalName_IUPAC>
1-(1,1-dimethylethyl)-3,5-dimethyl-2,4,6-trinitrobenzene

>  <STRUCTURE_SMILES>
CC(C1=C(C(=C(C(=C1[N+](=O)[O-])C)[N+](=O)[O-])C)[N+](=O)[O-])(C)C

>  <STRUCTURE_Parent_SMILES>
CC(C1=C(C(=C(C(=C1[N+](=O)[O-])C)[N+](=O)[O-])C)[N+](=O)[O-])(C)C

>  <STRUCTURE_InChI>
InChI=1/C12H15N3O6/c1-6-9(13(16)17)7(2)11(15(20)21)8(12(3,4)5)10(6)14(18)19/h1-5H3

>  <STRUCTURE_InChIKey>
XMWRWTSZNLOZFN-UHFFFAOYAO

>  <StudyType>
Carcinogenicity

>  <Endpoint>
TD50; Tumor Target Sites

>  <Species>
mouse

>  <TD50_Mouse_mg>
127

>  <TD50_Mouse_mmol>
0.427

>  <ActivityScore_CPDBAS_Mouse>
32

>  <TD50_Mouse_Note>
TD50 is harmonic mean of more than one positive test

>  <TargetSites_Mouse_Male>
harderian gland; liver

>  <TargetSites_Mouse_Female>
liver

>  <ActivityOutcome_CPDBAS_Mouse>
active

>  <ActivityOutcome_CPDBAS_SingleCellCall>
active

>  <ActivityOutcome_CPDBAS_MultiCellCall>
active

>  <ActivityOutcome_CPDBAS_MultiCellCall_Details>
multisite active; multisex active

>  <ChemicalPage_URL>
http://potency.berkeley.edu/chempages/2,4,6-TRINITRO-1,3-DIMETHYL-5-tert-BUTYLBENZENE.html

$$$$



 15 15  0  0  0  0  0  0  0  0999 V2000
    3.4662   -0.6724    0.0000 N   0  3  0  0  0  0  0  0  0  0  0  0
    5.7747   -4.6655    0.0000 N   0  3  0  0  0  0  0  0  0  0  0  0
    1.1438   -4.6586    0.0000 N   0  3  0  0  0  0  0  0  0  0  0  0
    4.6100   -3.9861    0.0000 C   0  0  0  0  0  0  0  0  0  0  0  0
    3.4662   -1.9965    0.0000 C   0  0  0  0  0  0  0  0  0  0  0  0
    2.3085   -3.9861    0.0000 C   0  0  0  0  0  0  0  0  0  0  0  0
    2.3016   -2.6620    0.0000 C   0  0  0  0  0  0  0  0  0  0  0  0
    4.6100   -2.6620    0.0000 C   0  0  0  0  0  0  0  0  0  0  0  0
    3.4662   -4.6516    0.0000 C   0  0  0  0  0  0  0  0  0  0  0  0
    5.7678   -5.9965    0.0000 O   0  5  0  0  0  0  0  0  0  0  0  0
    4.6378   -0.0277    0.0000 O   0  5  0  0  0  0  0  0  0  0  0  0
    0.0000   -4.0000    0.0000 O   0  5  0  0  0  0  0  0  0  0  0  0
    6.9324   -4.0069    0.0000 O   0  0  0  0  0  0  0  0  0  0  0  0
    2.3501    0.0000    0.0000 O   0  0  0  0  0  0  0  0  0  0  0  0
    1.1438   -5.9965    0.0000 O   0  0  0  0  0  0  0  0  0  0  0  0
  1  5  1  0  0  0  0
  1 11  1  0  0  0  0
  1 14  2  0  0  0  0
  2  4  1  0  0  0  0
  2 10  1  0  0  0  0
  2 13  2  0  0  0  0
  3  6  1  0  0  0  0
  3 12  1  0  0  0  0
  3 15  2  0  0  0  0
  4  8  2  0  0  0  0
  4  9  1  0  0  0  0
  5  7  2  0  0  0  0
  5  8  1  0  0  0  0
  6  7  1  0  0  0  0
  6  9  2  0  0  0  0
M  END
>  <DSSTox_RID>
21406

>  <DSSTox_CID>
1406

>  <DSSTox_Generic_SID>
21406

>  <DSSTox_FileID>
1470_CPDBAS_v5d

>  <STRUCTURE_Formula>
C6H3N3O6

>  <STRUCTURE_MolecularWeight>
213.1046

>  <STRUCTURE_ChemicalType>
defined organic

>  <STRUCTURE_TestedForm_DefinedOrganic>
parent

>  <STRUCTURE_Shown>
tested chemical

>  <TestSubstance_ChemicalName>
1,3,5-Trinitrobenzene

>  <TestSubstance_CASRN>
99-35-4

>  <TestSubstance_Description>
single chemical compound

>  <STRUCTURE_ChemicalName_IUPAC>
1,3,5-trinitrobenzene

>  <STRUCTURE_SMILES>
[O-][N+](C1=CC([N+]([O-])=O)=CC([N+]([O-])=O)=C1)=O

>  <STRUCTURE_Parent_SMILES>
[O-][N+](C1=CC([N+]([O-])=O)=CC([N+]([O-])=O)=C1)=O

>  <STRUCTURE_InChI>
InChI=1/C6H3N3O6/c10-7(11)4-1-5(8(12)13)3-6(2-4)9(14)15/h1-3H

>  <STRUCTURE_InChIKey>
UATJOMSPNYCXIX-UHFFFAOYAH

>  <StudyType>
Carcinogenicity

>  <Endpoint>
TD50; Tumor Target Sites

>  <Species>
rat

>  <ActivityScore_CPDBAS_Rat>
0

>  <TD50_Rat_Note>
no positive results

>  <TargetSites_Rat_Male>
no positive results

>  <TargetSites_Rat_Female>
no positive results

>  <ActivityOutcome_CPDBAS_Rat>
inactive

>  <ActivityOutcome_CPDBAS_SingleCellCall>
inactive

>  <ActivityOutcome_CPDBAS_MultiCellCall>
inactive

>  <ActivityOutcome_CPDBAS_MultiCellCall_Details>
multisex inactive

>  <Note_CPDBAS>
Rat added v3a; chemical added v3a

>  <ChemicalPage_URL>
http://potency.berkeley.edu/chempages/1,3,5-TRINITROBENZENE.html

$$$$



 15 14  0  0  0  0  0  0  0  0999 V2000
    5.7539    0.0000    0.0000 O   0  0  0  0  0  0  0  0  0  0  0  0
    5.7539   -1.3257    0.0000 N   0  3  0  0  0  0  0  0  0  0  0  0
    4.6031   -1.9885    0.0000 O   0  0  0  0  0  0  0  0  0  0  0  0
    4.6031   -3.3142    0.0000 C   0  0  0  0  0  0  0  0  0  0  0  0
    5.7539   -3.9863    0.0000 C   0  0  0  0  0  0  0  0  0  0  0  0
    6.9047   -3.3142    0.0000 O   0  0  0  0  0  0  0  0  0  0  0  0
    8.0554   -3.9863    0.0000 N   0  3  0  0  0  0  0  0  0  0  0  0
    8.0554   -5.3120    0.0000 O   0  0  0  0  0  0  0  0  0  0  0  0
    9.2062   -3.3142    0.0000 O   0  5  0  0  0  0  0  0  0  0  0  0
    3.4523   -3.9863    0.0000 C   0  0  0  0  0  0  0  0  0  0  0  0
    2.3016   -3.3142    0.0000 O   0  0  0  0  0  0  0  0  0  0  0  0
    1.1508   -3.9863    0.0000 N   0  3  0  0  0  0  0  0  0  0  0  0
    1.1508   -5.3120    0.0000 O   0  0  0  0  0  0  0  0  0  0  0  0
    0.0000   -3.3142    0.0000 O   0  5  0  0  0  0  0  0  0  0  0  0
    6.9047   -1.9885    0.0000 O   0  5  0  0  0  0  0  0  0  0  0  0
  1  2  2  0  0  0  0
  2  3  1  0  0  0  0
  2 15  1  0  0  0  0
  3  4  1  0  0  0  0
  4  5  1  0  0  0  0
  4 10  1  0  0  0  0
  5  6  1  0  0  0  0
  6  7  1  0  0  0  0
  7  8  2  0  0  0  0
  7  9  1  0  0  0  0
 10 11  1  0  0  0  0
 11 12  1  0  0  0  0
 12 13  2  0  0  0  0
 12 14  1  0  0  0  0
M  END
>  <DSSTox_RID>
21407

>  <DSSTox_CID>
1407

>  <DSSTox_Generic_SID>
21407

>  <DSSTox_FileID>
1471_CPDBAS_v5d

>  <STRUCTURE_Formula>
C3H5N3O9

>  <STRUCTURE_MolecularWeight>
227.0865

>  <STRUCTURE_ChemicalType>
defined organic

>  <STRUCTURE_TestedForm_DefinedOrganic>
parent

>  <STRUCTURE_Shown>
tested chemical

>  <TestSubstance_ChemicalName>
Trinitroglycerin

>  <TestSubstance_CASRN>
55-63-0

>  <TestSubstance_Description>
single chemical compound

>  <STRUCTURE_ChemicalName_IUPAC>
propane-1,2,3-triyl trinitrate

>  <STRUCTURE_SMILES>
O=[N+](OC(CO[N+](=O)[O-])CO[N+](=O)[O-])[O-]

>  <STRUCTURE_Parent_SMILES>
O=[N+](OC(CO[N+](=O)[O-])CO[N+](=O)[O-])[O-]

>  <STRUCTURE_InChI>
InChI=1/C3H5N3O9/c7-4(8)13-1-3(15-6(11)12)2-14-5(9)10/h3H,1-2H2

>  <STRUCTURE_InChIKey>
SNIOPGDIGTZGOP-UHFFFAOYAR

>  <StudyType>
Carcinogenicity

>  <Endpoint>
TD50; Tumor Target Sites

>  <Species>
rat

>  <TD50_Rat_mg>
183

>  <TD50_Rat_mmol>
0.806

>  <ActivityScore_CPDBAS_Rat>
27

>  <TD50_Rat_Note>
TD50 is harmonic mean of more than one positive test

>  <TargetSites_Rat_Male>
liver; testes

>  <TargetSites_Rat_Female>
liver

>  <ActivityOutcome_CPDBAS_Rat>
active

>  <ActivityOutcome_CPDBAS_SingleCellCall>
active

>  <ActivityOutcome_CPDBAS_MultiCellCall>
active

>  <ActivityOutcome_CPDBAS_MultiCellCall_Details>
multisite active; multisex active

>  <Note_CPDBAS>
TD50_Rat modified v2a

>  <ChemicalPage_URL>
http://potency.berkeley.edu/chempages/TRINITROGLYCERIN.html

$$$$



 14 13  0  0  0  0  0  0  0  0999 V2000
    3.9465   -2.8373    0.0000 O   0  0  0  0  0  0  0  0  0  0  0  0
    4.6085   -3.9895    0.0000 P   0  0  0  0  0  0  0  0  0  0  0  0
    5.7607   -3.3274    0.0000 O   0  0  0  0  0  0  0  0  0  0  0  0
    5.7607   -1.9947    0.0000 C   0  0  0  0  0  0  0  0  0  0  0  0
    4.6085   -1.3327    0.0000 C   0  0  0  0  0  0  0  0  0  0  0  0
    4.6085    0.0000    0.0000 Cl  0  0  0  0  0  0  0  0  0  0  0  0
    5.2706   -5.1416    0.0000 O   0  0  0  0  0  0  0  0  0  0  0  0
    6.6033   -5.1416    0.0000 C   0  0  0  0  0  0  0  0  0  0  0  0
    7.2653   -3.9895    0.0000 C   0  0  0  0  0  0  0  0  0  0  0  0
    8.5980   -3.9895    0.0000 Cl  0  0  0  0  0  0  0  0  0  0  0  0
    3.4564   -4.6515    0.0000 O   0  0  0  0  0  0  0  0  0  0  0  0
    2.3043   -3.9895    0.0000 C   0  0  0  0  0  0  0  0  0  0  0  0
    1.1521   -4.6515    0.0000 C   0  0  0  0  0  0  0  0  0  0  0  0
    0.0000   -3.9895    0.0000 Cl  0  0  0  0  0  0  0  0  0  0  0  0
  1  2  2  0  0  0  0
  2  3  1  0  0  0  0
  2  7  1  0  0  0  0
  2 11  1  0  0  0  0
  3  4  1  0  0  0  0
  4  5  1  0  0  0  0
  5  6  1  0  0  0  0
  7  8  1  0  0  0  0
  8  9  1  0  0  0  0
  9 10  1  0  0  0  0
 11 12  1  0  0  0  0
 12 13  1  0  0  0  0
 13 14  1  0  0  0  0
M  END
>  <DSSTox_RID>
21411

>  <DSSTox_CID>
1411

>  <DSSTox_Generic_SID>
21411

>  <DSSTox_FileID>
1475_CPDBAS_v5d

>  <STRUCTURE_Formula>
C6H12Cl3O4P

>  <STRUCTURE_MolecularWeight>
285.4898

>  <STRUCTURE_ChemicalType>
defined organic

>  <STRUCTURE_TestedForm_DefinedOrganic>
parent

>  <STRUCTURE_Shown>
tested chemical

>  <TestSubstance_ChemicalName>
Tris(2-chloroethyl)phosphate

>  <TestSubstance_CASRN>
115-96-8

>  <TestSubstance_Description>
single chemical compound

>  <STRUCTURE_ChemicalName_IUPAC>
tris(2-chloroethyl) phosphate

>  <STRUCTURE_SMILES>
O=P(OCCCl)(OCCCl)OCCCl

>  <STRUCTURE_Parent_SMILES>
O=P(OCCCl)(OCCCl)OCCCl

>  <STRUCTURE_InChI>
InChI=1/C6H12Cl3O4P/c7-1-4-11-14(10,12-5-2-8)13-6-3-9/h1-6H2

>  <STRUCTURE_InChIKey>
HQUQLFOMPYWACS-UHFFFAOYAR

>  <StudyType>
Carcinogenicity

>  <Endpoint>
TD50; Tumor Target Sites

>  <Species>
rat; mouse

>  <ActivityOutcome_CPDBAS_Mutagenicity>
inactive

>  <TD50_Rat_mg>
86.7

>  <TD50_Rat_mmol>
0.304

>  <ActivityScore_CPDBAS_Rat>
31

>  <TD50_Rat_Note>
TD50 is harmonic mean of more than one positive test

>  <TargetSites_Rat_Male>
kidney

>  <TargetSites_Rat_Female>
kidney

>  <ActivityOutcome_CPDBAS_Rat>
active

>  <TD50_Mouse_mg>
969

>  <TD50_Mouse_mmol>
3.39

>  <ActivityScore_CPDBAS_Mouse>
22

>  <TD50_Mouse_Note>
TD50 is harmonic mean of more than one positive test

>  <TargetSites_Mouse_Male>
kidney; liver

>  <TargetSites_Mouse_Female>
hematopoietic system; stomach

>  <ActivityOutcome_CPDBAS_Mouse>
active

>  <ActivityOutcome_CPDBAS_SingleCellCall>
active

>  <ActivityOutcome_CPDBAS_MultiCellCall>
active

>  <ActivityOutcome_CPDBAS_MultiCellCall_Details>
multisite active; multisex active; multispecies active

>  <Note_CPDBAS>
TD50_Mouse modified v2a; TargetSites_Mouse_Male modified v2a; TargetSites_Mouse_Female modified v2a

>  <NTP_TechnicalReport>
TR 391; final call in CPDB differs due to additional data

>  <ChemicalPage_URL>
http://potency.berkeley.edu/chempages/TRIS(2-CHLOROETHYL)PHOSPHATE.html

$$$$



 12 11  0  0  0  0  0  0  0  0999 V2000
    3.3282   -2.3041    0.0000 C   0  0  0  0  0  0  0  0  0  0  0  0
    3.9865   -1.1484    0.0000 C   0  0  0  0  0  0  0  0  0  0  0  0
    3.3282    0.0000    0.0000 C   0  0  0  0  0  0  0  0  0  0  0  0
    1.9969    0.0000    0.0000 O   0  0  0  0  0  0  0  0  0  0  0  0
    1.3313   -1.1484    0.0000 C   0  0  0  0  0  0  0  0  0  0  0  0
    0.0000   -1.1484    0.0000 Cl  0  0  0  0  0  0  0  0  0  0  0  0
    5.3178   -1.1484    0.0000 O   0  0  0  0  0  0  0  0  0  0  0  0
    5.9835   -2.3041    0.0000 C   0  0  0  0  0  0  0  0  0  0  0  0
    7.3148   -2.3041    0.0000 Cl  0  0  0  0  0  0  0  0  0  0  0  0
    1.9969   -2.3041    0.0000 O   0  0  0  0  0  0  0  0  0  0  0  0
    1.3313   -3.4526    0.0000 C   0  0  0  0  0  0  0  0  0  0  0  0
    0.0000   -3.4526    0.0000 Cl  0  0  0  0  0  0  0  0  0  0  0  0
  1  2  1  0  0  0  0
  1 10  1  0  0  0  0
  2  3  1  0  0  0  0
  2  7  1  0  0  0  0
  3  4  1  0  0  0  0
  4  5  1  0  0  0  0
  5  6  1  0  0  0  0
  7  8  1  0  0  0  0
  8  9  1  0  0  0  0
 10 11  1  0  0  0  0
 11 12  1  0  0  0  0
M  END
>  <DSSTox_RID>
21412

>  <DSSTox_CID>
1412

>  <DSSTox_Generic_SID>
21412

>  <DSSTox_FileID>
1476_CPDBAS_v5d

>  <STRUCTURE_Formula>
C6H11Cl3O3

>  <STRUCTURE_MolecularWeight>
237.5101

>  <STRUCTURE_ChemicalType>
defined organic

>  <STRUCTURE_TestedForm_DefinedOrganic>
parent

>  <STRUCTURE_Shown>
tested chemical

>  <TestSubstance_ChemicalName>
Tris-1,2,3-(chloromethoxy)propane

>  <TestSubstance_CASRN>
38571-73-2

>  <TestSubstance_Description>
single chemical compound

>  <STRUCTURE_ChemicalName_IUPAC>
1,2,3-tris[(chloromethyl)oxy]propane

>  <STRUCTURE_SMILES>
C(C(COCCl)OCCl)OCCl

>  <STRUCTURE_Parent_SMILES>
C(C(COCCl)OCCl)OCCl

>  <STRUCTURE_InChI>
InChI=1/C6H11Cl3O3/c7-3-10-1-6(12-5-9)2-11-4-8/h6H,1-5H2

>  <STRUCTURE_InChIKey>
SWXSJBPKOPJPJL-UHFFFAOYAE

>  <StudyType>
Carcinogenicity

>  <Endpoint>
TD50; Tumor Target Sites

>  <Species>
mouse

>  <TD50_Mouse_mg>
3.44

>  <TD50_Mouse_mmol>
0.0145

>  <ActivityScore_CPDBAS_Mouse>
49

>  <TD50_Mouse_Note>
positive test results only by intraperitoneal or intravenous injection

>  <TargetSites_Mouse_Female>
peritoneal cavity

>  <ActivityOutcome_CPDBAS_Mouse>
active

>  <ActivityOutcome_CPDBAS_SingleCellCall>
active

>  <ChemicalPage_URL>
http://potency.berkeley.edu/chempages/TRIS-1,2,3-(CHLOROMETHOXY)PROPANE.html

$$$$



 20 19  0  0  0  0  0  0  0  0999 V2000
    5.3236   -3.9907    0.0000 O   0  0  0  0  0  0  0  0  0  0  0  0
    3.9907   -3.9907    0.0000 P   0  0  0  0  0  0  0  0  0  0  0  0
    3.9907   -5.3236    0.0000 O   0  0  0  0  0  0  0  0  0  0  0  0
    5.1400   -5.9861    0.0000 C   0  0  0  0  0  0  0  0  0  0  0  0
    5.1400   -7.3190    0.0000 C   0  0  3  0  0  0  0  0  0  0  0  0
    6.2974   -7.9814    0.0000 C   0  0  0  0  0  0  0  0  0  0  0  0
    7.4467   -7.3190    0.0000 Br  0  0  0  0  0  0  0  0  0  0  0  0
    3.9907   -7.9814    0.0000 Br  0  0  0  0  0  0  0  0  0  0  0  0
    2.6578   -3.9907    0.0000 O   0  0  0  0  0  0  0  0  0  0  0  0
    1.9954   -5.1400    0.0000 C   0  0  0  0  0  0  0  0  0  0  0  0
    0.6625   -5.1400    0.0000 C   0  0  3  0  0  0  0  0  0  0  0  0
    0.0000   -6.2974    0.0000 C   0  0  0  0  0  0  0  0  0  0  0  0
    0.6625   -7.4467    0.0000 Br  0  0  0  0  0  0  0  0  0  0  0  0
    0.0000   -3.9907    0.0000 Br  0  0  0  0  0  0  0  0  0  0  0  0
    3.9907   -2.6578    0.0000 O   0  0  0  0  0  0  0  0  0  0  0  0
    5.1400   -1.9954    0.0000 C   0  0  0  0  0  0  0  0  0  0  0  0
    5.1400   -0.6625    0.0000 C   0  0  3  0  0  0  0  0  0  0  0  0
    3.9907    0.0000    0.0000 C   0  0  0  0  0  0  0  0  0  0  0  0
    2.8414   -0.6625    0.0000 Br  0  0  0  0  0  0  0  0  0  0  0  0
    6.2974    0.0000    0.0000 Br  0  0  0  0  0  0  0  0  0  0  0  0
  1  2  2  0  0  0  0
  2  3  1  0  0  0  0
  2  9  1  0  0  0  0
  2 15  1  0  0  0  0
  3  4  1  0  0  0  0
  4  5  1  0  0  0  0
  5  6  1  0  0  0  0
  5  8  1  0  0  0  0
  6  7  1  0  0  0  0
  9 10  1  0  0  0  0
 10 11  1  0  0  0  0
 11 12  1  0  0  0  0
 11 14  1  0  0  0  0
 12 13  1  0  0  0  0
 15 16  1  0  0  0  0
 16 17  1  0  0  0  0
 17 18  1  0  0  0  0
 17 20  1  0  0  0  0
 18 19  1  0  0  0  0
M  END
>  <DSSTox_RID>
21413

>  <DSSTox_CID>
1413

>  <DSSTox_Generic_SID>
21413

>  <DSSTox_FileID>
1477_CPDBAS_v5d

>  <STRUCTURE_Formula>
C9H15Br6O4P

>  <STRUCTURE_MolecularWeight>
697.6108

>  <STRUCTURE_ChemicalType>
defined organic

>  <STRUCTURE_TestedForm_DefinedOrganic>
parent

>  <STRUCTURE_Shown>
tested chemical

>  <TestSubstance_ChemicalName>
Tris(2,3-dibromopropyl)phosphate

>  <TestSubstance_CASRN>
126-72-7

>  <TestSubstance_Description>
single chemical compound

>  <STRUCTURE_ChemicalName_IUPAC>
tris(2,3-dibromopropyl) phosphate

>  <STRUCTURE_SMILES>
O=P(OCC(CBr)Br)(OCC(CBr)Br)OCC(CBr)Br

>  <STRUCTURE_Parent_SMILES>
O=P(OCC(CBr)Br)(OCC(CBr)Br)OCC(CBr)Br

>  <STRUCTURE_InChI>
InChI=1/C9H15Br6O4P/c10-1-7(13)4-17-20(16,18-5-8(14)2-11)19-6-9(15)3-12/h7-9H,1-6H2

>  <STRUCTURE_InChIKey>
PQYJRMFWJJONBO-UHFFFAOYAR

>  <StudyType>
Carcinogenicity

>  <Endpoint>
TD50; Tumor Target Sites

>  <Species>
rat; mouse

>  <ActivityOutcome_CPDBAS_Mutagenicity>
active

>  <TD50_Rat_mg>
3.83

>  <TD50_Rat_mmol>
0.00549

>  <ActivityScore_CPDBAS_Rat>
49

>  <TD50_Rat_Note>
TD50 is harmonic mean of more than one positive test

>  <TargetSites_Rat_Male>
kidney; large intestine

>  <TargetSites_Rat_Female>
kidney

>  <ActivityOutcome_CPDBAS_Rat>
active

>  <TD50_Mouse_mg>
128

>  <TD50_Mouse_mmol>
0.183

>  <ActivityScore_CPDBAS_Mouse>
37

>  <TD50_Mouse_Note>
TD50 is harmonic mean of more than one positive test

>  <TargetSites_Mouse_Male>
kidney; lung; stomach

>  <TargetSites_Mouse_Female>
liver; lung; stomach

>  <ActivityOutcome_CPDBAS_Mouse>
active

>  <ActivityOutcome_CPDBAS_SingleCellCall>
active

>  <ActivityOutcome_CPDBAS_MultiCellCall>
active

>  <ActivityOutcome_CPDBAS_MultiCellCall_Details>
multisite active; multisex active; multispecies active

>  <NTP_TechnicalReport>
TR 076; additional results included in CPDB

>  <ChemicalPage_URL>
http://potency.berkeley.edu/chempages/TRIS(2,3-DIBROMOPROPYL)PHOSPHATE.html

$$$$



 20 19  0  0  0  0  0  0  0  0999 V2000
    5.3180   -3.9865    0.0000 O   0  0  0  0  0  0  0  0  0  0  0  0
    3.9865   -3.9865    0.0000 P   0  0  0  0  0  0  0  0  0  0  0  0
    3.9865   -5.3180    0.0000 O   0  0  0  0  0  0  0  0  0  0  0  0
    5.1347   -5.9798    0.0000 C   0  0  0  0  0  0  0  0  0  0  0  0
    6.2908   -5.3180    0.0000 C   0  0  0  0  0  0  0  0  0  0  0  0
    6.2908   -3.9865    0.0000 Cl  0  0  0  0  0  0  0  0  0  0  0  0
    5.1347   -7.3113    0.0000 C   0  0  0  0  0  0  0  0  0  0  0  0
    6.2908   -7.9731    0.0000 Cl  0  0  0  0  0  0  0  0  0  0  0  0
    2.6550   -3.9865    0.0000 O   0  0  0  0  0  0  0  0  0  0  0  0
    1.9933   -5.1347    0.0000 C   0  0  0  0  0  0  0  0  0  0  0  0
    2.6550   -6.2908    0.0000 C   0  0  0  0  0  0  0  0  0  0  0  0
    3.9865   -6.2908    0.0000 Cl  0  0  0  0  0  0  0  0  0  0  0  0
    0.6618   -5.1347    0.0000 C   0  0  0  0  0  0  0  0  0  0  0  0
    0.0000   -6.2908    0.0000 Cl  0  0  0  0  0  0  0  0  0  0  0  0
    3.9865   -2.6550    0.0000 O   0  0  0  0  0  0  0  0  0  0  0  0
    5.1347   -1.9933    0.0000 C   0  0  0  0  0  0  0  0  0  0  0  0
    5.1347   -0.6618    0.0000 C   0  0  0  0  0  0  0  0  0  0  0  0
    3.9865    0.0000    0.0000 Cl  0  0  0  0  0  0  0  0  0  0  0  0
    6.2908   -2.6550    0.0000 C   0  0  0  0  0  0  0  0  0  0  0  0
    7.4389   -1.9933    0.0000 Cl  0  0  0  0  0  0  0  0  0  0  0  0
  1  2  2  0  0  0  0
  2  3  1  0  0  0  0
  2  9  1  0  0  0  0
  2 15  1  0  0  0  0
  3  4  1  0  0  0  0
  4  5  1  0  0  0  0
  4  7  1  0  0  0  0
  5  6  1  0  0  0  0
  7  8  1  0  0  0  0
  9 10  1  0  0  0  0
 10 11  1  0  0  0  0
 10 13  1  0  0  0  0
 11 12  1  0  0  0  0
 13 14  1  0  0  0  0
 15 16  1  0  0  0  0
 16 17  1  0  0  0  0
 16 19  1  0  0  0  0
 17 18  1  0  0  0  0
 19 20  1  0  0  0  0
M  END
>  <DSSTox_RID>
40833

>  <DSSTox_CID>
6261

>  <DSSTox_Generic_SID>
26261

>  <DSSTox_FileID>
1478_CPDBAS_v5d

>  <STRUCTURE_Formula>
C9H15Cl6O4P

>  <STRUCTURE_MolecularWeight>
430.9048

>  <STRUCTURE_ChemicalType>
defined organic

>  <STRUCTURE_TestedForm_DefinedOrganic>
parent

>  <STRUCTURE_Shown>
tested chemical

>  <TestSubstance_ChemicalName>
Tris-(1,3-dichloro-2-propyl)phosphate

>  <TestSubstance_CASRN>
13674-87-8

>  <TestSubstance_Description>
single chemical compound

>  <STRUCTURE_ChemicalName_IUPAC>
tris[2-chloro-1-(chloromethyl)ethyl] phosphate

>  <STRUCTURE_SMILES>
O=P(OC(CCl)CCl)(OC(CCl)CCl)OC(CCl)CCl

>  <STRUCTURE_Parent_SMILES>
O=P(OC(CCl)CCl)(OC(CCl)CCl)OC(CCl)CCl

>  <STRUCTURE_InChI>
InChI=1/C9H15Cl6O4P/c10-1-7(2-11)17-20(16,18-8(3-12)4-13)19-9(5-14)6-15/h7-9H,1-6H2

>  <STRUCTURE_InChIKey>
ASLWPAWFJZFCKF-UHFFFAOYAY

>  <StudyType>
Carcinogenicity

>  <Endpoint>
TD50; Tumor Target Sites

>  <Species>
rat

>  <ActivityOutcome_CPDBAS_Mutagenicity>
active

>  <TD50_Rat_mg>
46.4

>  <TD50_Rat_mmol>
0.108

>  <ActivityScore_CPDBAS_Rat>
36

>  <TD50_Rat_Note>
TD50 is harmonic mean of more than one positive test

>  <TargetSites_Rat_Male>
kidney; liver; testes

>  <TargetSites_Rat_Female>
kidney; liver

>  <ActivityOutcome_CPDBAS_Rat>
active

>  <ActivityOutcome_CPDBAS_SingleCellCall>
active

>  <ActivityOutcome_CPDBAS_MultiCellCall>
active

>  <ActivityOutcome_CPDBAS_MultiCellCall_Details>
multisite active; multisex active

>  <Note_CPDBAS>
Rat added v5a; Mutagenicity_SAL_CPDB added v5a; chemical added v5a

>  <ChemicalPage_URL>
http://potency.berkeley.edu/chempages/TRIS-(1%2C3-DICHLORO-2-PROPYL)PHOSPHATE.html

$$$$



 29 28  0  0  0  0  0  0  0  0999 V2000
    8.6397   -7.3094    0.0000 O   0  0  0  0  0  0  0  0  0  0  0  0
    7.3094   -7.3094    0.0000 P   0  0  0  0  0  0  0  0  0  0  0  0
    7.3094   -8.6397    0.0000 O   0  0  0  0  0  0  0  0  0  0  0  0
    8.4642   -9.2975    0.0000 C   0  0  0  0  0  0  0  0  0  0  0  0
    8.4642  -10.6278    0.0000 C   0  0  3  0  0  0  0  0  0  0  0  0
    9.6045  -11.3003    0.0000 C   0  0  0  0  0  0  0  0  0  0  0  0
    9.6045  -12.6306    0.0000 C   0  0  0  0  0  0  0  0  0  0  0  0
   10.7594  -13.2884    0.0000 C   0  0  0  0  0  0  0  0  0  0  0  0
   10.7594  -14.6187    0.0000 C   0  0  0  0  0  0  0  0  0  0  0  0
    7.3094  -11.3003    0.0000 C   0  0  0  0  0  0  0  0  0  0  0  0
    7.3094  -12.6306    0.0000 C   0  0  0  0  0  0  0  0  0  0  0  0
    7.3094   -5.9791    0.0000 O   0  0  0  0  0  0  0  0  0  0  0  0
    8.4642   -5.3212    0.0000 C   0  0  0  0  0  0  0  0  0  0  0  0
    8.4642   -3.9909    0.0000 C   0  0  3  0  0  0  0  0  0  0  0  0
    7.3094   -3.3185    0.0000 C   0  0  0  0  0  0  0  0  0  0  0  0
    7.3094   -1.9881    0.0000 C   0  0  0  0  0  0  0  0  0  0  0  0
    6.1545   -1.3303    0.0000 C   0  0  0  0  0  0  0  0  0  0  0  0
    6.1545    0.0000    0.0000 C   0  0  0  0  0  0  0  0  0  0  0  0
    9.6045   -3.3185    0.0000 C   0  0  0  0  0  0  0  0  0  0  0  0
    9.6045   -1.9881    0.0000 C   0  0  0  0  0  0  0  0  0  0  0  0
    5.9791   -7.3094    0.0000 O   0  0  0  0  0  0  0  0  0  0  0  0
    5.3212   -8.4642    0.0000 C   0  0  0  0  0  0  0  0  0  0  0  0
    3.9909   -8.4642    0.0000 C   0  0  3  0  0  0  0  0  0  0  0  0
    3.3185   -9.6045    0.0000 C   0  0  0  0  0  0  0  0  0  0  0  0
    1.9881   -9.6045    0.0000 C   0  0  0  0  0  0  0  0  0  0  0  0
    1.3303  -10.7594    0.0000 C   0  0  0  0  0  0  0  0  0  0  0  0
    0.0000  -10.7594    0.0000 C   0  0  0  0  0  0  0  0  0  0  0  0
    3.3185   -7.3094    0.0000 C   0  0  0  0  0  0  0  0  0  0  0  0
    1.9881   -7.3094    0.0000 C   0  0  0  0  0  0  0  0  0  0  0  0
  1  2  2  0  0  0  0
  2  3  1  0  0  0  0
  2 12  1  0  0  0  0
  2 21  1  0  0  0  0
  3  4  1  0  0  0  0
  4  5  1  0  0  0  0
  5  6  1  0  0  0  0
  5 10  1  0  0  0  0
  6  7  1  0  0  0  0
  7  8  1  0  0  0  0
  8  9  1  0  0  0  0
 10 11  1  0  0  0  0
 12 13  1  0  0  0  0
 13 14  1  0  0  0  0
 14 15  1  0  0  0  0
 14 19  1  0  0  0  0
 15 16  1  0  0  0  0
 16 17  1  0  0  0  0
 17 18  1  0  0  0  0
 19 20  1  0  0  0  0
 21 22  1  0  0  0  0
 22 23  1  0  0  0  0
 23 24  1  0  0  0  0
 23 28  1  0  0  0  0
 24 25  1  0  0  0  0
 25 26  1  0  0  0  0
 26 27  1  0  0  0  0
 28 29  1  0  0  0  0
M  END
>  <DSSTox_RID>
21414

>  <DSSTox_CID>
1414

>  <DSSTox_Generic_SID>
21414

>  <DSSTox_FileID>
1479_CPDBAS_v5d

>  <STRUCTURE_Formula>
C24H51O4P

>  <STRUCTURE_MolecularWeight>
434.6331

>  <STRUCTURE_ChemicalType>
defined organic

>  <STRUCTURE_TestedForm_DefinedOrganic>
parent

>  <STRUCTURE_Shown>
tested chemical

>  <TestSubstance_ChemicalName>
Tris(2-ethylhexyl)phosphate

>  <TestSubstance_CASRN>
78-42-2

>  <TestSubstance_Description>
single chemical compound

>  <STRUCTURE_ChemicalName_IUPAC>
tris(2-ethylhexyl) phosphate

>  <STRUCTURE_SMILES>
O=P(OCC(CCCC)CC)(OCC(CCCC)CC)OCC(CCCC)CC

>  <STRUCTURE_Parent_SMILES>
O=P(OCC(CCCC)CC)(OCC(CCCC)CC)OCC(CCCC)CC

>  <STRUCTURE_InChI>
InChI=1/C24H51O4P/c1-7-13-16-22(10-4)19-26-29(25,27-20-23(11-5)17-14-8-2)28-21-24(12-6)18-15-9-3/h22-24H,7-21H2,1-6H3

>  <STRUCTURE_InChIKey>
GTVWRXDRKAHEAD-UHFFFAOYAD

>  <StudyType>
Carcinogenicity

>  <Endpoint>
TD50; Tumor Target Sites

>  <Species>
rat; mouse

>  <ActivityOutcome_CPDBAS_Mutagenicity>
inactive

>  <ActivityScore_CPDBAS_Rat>
0

>  <TD50_Rat_Note>
no positive results

>  <TargetSites_Rat_Male>
no positive results

>  <TargetSites_Rat_Female>
no positive results

>  <ActivityOutcome_CPDBAS_Rat>
inactive

>  <TD50_Mouse_mg>
2560

>  <TD50_Mouse_mmol>
5.89

>  <ActivityScore_CPDBAS_Mouse>
20

>  <TargetSites_Mouse_Male>
no positive results

>  <TargetSites_Mouse_Female>
liver

>  <ActivityOutcome_CPDBAS_Mouse>
active

>  <ActivityOutcome_CPDBAS_SingleCellCall>
active

>  <NTP_TechnicalReport>
TR 274

>  <ChemicalPage_URL>
http://potency.berkeley.edu/chempages/TRIS(2-ETHYLHEXYL)PHOSPHATE.html

$$$$



 13 12  0  0  0  0  0  0  0  0999 V2000
    0.0000   -5.7554    0.0000 C   0  0  0  0  0  0  0  0  0  0  0  0
    0.6641   -4.6067    0.0000 C   0  0  3  0  0  0  0  0  0  0  0  0
    1.9922   -4.6067    0.0000 C   0  0  0  0  0  0  0  0  0  0  0  0
    2.6563   -3.4520    0.0000 N   0  0  0  0  0  0  0  0  0  0  0  0
    1.9922   -2.3033    0.0000 C   0  0  0  0  0  0  0  0  0  0  0  0
    2.6563   -1.1487    0.0000 C   0  0  3  0  0  0  0  0  0  0  0  0
    3.9905   -1.1487    0.0000 C   0  0  0  0  0  0  0  0  0  0  0  0
    1.9922    0.0000    0.0000 O   0  0  0  0  0  0  0  0  0  0  0  0
    3.9905   -3.4520    0.0000 C   0  0  0  0  0  0  0  0  0  0  0  0
    4.6546   -4.6067    0.0000 C   0  0  3  0  0  0  0  0  0  0  0  0
    5.9827   -4.6067    0.0000 C   0  0  0  0  0  0  0  0  0  0  0  0
    3.9905   -5.7554    0.0000 O   0  0  0  0  0  0  0  0  0  0  0  0
    0.0000   -3.4520    0.0000 O   0  0  0  0  0  0  0  0  0  0  0  0
  1  2  1  0  0  0  0
  2  3  1  0  0  0  0
  2 13  1  0  0  0  0
  3  4  1  0  0  0  0
  4  5  1  0  0  0  0
  4  9  1  0  0  0  0
  5  6  1  0  0  0  0
  6  7  1  0  0  0  0
  6  8  1  0  0  0  0
  9 10  1  0  0  0  0
 10 11  1  0  0  0  0
 10 12  1  0  0  0  0
M  END
>  <DSSTox_RID>
21415

>  <DSSTox_CID>
1415

>  <DSSTox_Generic_SID>
21415

>  <DSSTox_FileID>
1480_CPDBAS_v5d

>  <STRUCTURE_Formula>
C9H21NO3

>  <STRUCTURE_MolecularWeight>
191.2679

>  <STRUCTURE_ChemicalType>
defined organic

>  <STRUCTURE_TestedForm_DefinedOrganic>
parent

>  <STRUCTURE_Shown>
tested chemical

>  <TestSubstance_ChemicalName>
Tris(2-hydroxypropyl)amine

>  <TestSubstance_CASRN>
122-20-3

>  <TestSubstance_Description>
single chemical compound

>  <STRUCTURE_ChemicalName_IUPAC>
1,1',1''-nitrilotripropan-2-ol

>  <STRUCTURE_SMILES>
CC(CN(CC(C)O)CC(C)O)O

>  <STRUCTURE_Parent_SMILES>
CC(CN(CC(C)O)CC(C)O)O

>  <STRUCTURE_InChI>
InChI=1/C9H21NO3/c1-7(11)4-10(5-8(2)12)6-9(3)13/h7-9,11-13H,4-6H2,1-3H3

>  <STRUCTURE_InChIKey>
SLINHMUFWFWBMU-UHFFFAOYAF

>  <StudyType>
Carcinogenicity

>  <Endpoint>
TD50; Tumor Target Sites

>  <Species>
rat

>  <ActivityOutcome_CPDBAS_Mutagenicity>
inactive

>  <ActivityScore_CPDBAS_Rat>
0

>  <TD50_Rat_Note>
no positive results

>  <TargetSites_Rat_Male>
no positive results

>  <ActivityOutcome_CPDBAS_Rat>
inactive

>  <ActivityOutcome_CPDBAS_SingleCellCall>
inactive

>  <ChemicalPage_URL>
http://potency.berkeley.edu/chempages/TRIS(2-HYDROXYPROPYL)AMINE.html

$$$$



 35 34  0  0  0  0  0  0  0  0999 V2000
    0.0000   -2.2986    0.0000 C   0  0  0  0  0  0  0  0  0  0  0  0
    1.3409   -2.2986    0.0000 C   0  0  0  0  0  0  0  0  0  0  0  0
    1.9794   -3.4479    0.0000 C   0  0  0  0  0  0  0  0  0  0  0  0
    3.3202   -3.4479    0.0000 C   0  0  0  0  0  0  0  0  0  0  0  0
    3.9907   -4.5972    0.0000 C   0  0  0  0  0  0  0  0  0  0  0  0
    5.3315   -4.5972    0.0000 C   0  0  0  0  0  0  0  0  0  0  0  0
    6.0020   -5.7785    0.0000 C   0  0  0  0  0  0  0  0  0  0  0  0
    7.3109   -5.7785    0.0000 C   0  0  0  0  0  0  0  0  0  0  0  0
    7.9813   -6.9278    0.0000 C   0  0  0  0  0  0  0  0  0  0  0  0
    9.3222   -6.9278    0.0000 C   0  0  0  0  0  0  0  0  0  0  0  0
    9.9926   -8.0771    0.0000 C   0  0  0  0  0  0  0  0  0  0  0  0
   11.3016   -8.0771    0.0000 C   0  0  0  0  0  0  0  0  0  0  0  0
   11.9720   -9.2264    0.0000 C   0  0  0  0  0  0  0  0  0  0  0  0
   13.3129   -9.2264    0.0000 C   0  0  0  0  0  0  0  0  0  0  0  0
   13.9833  -10.3757    0.0000 C   0  0  0  0  0  0  0  0  0  0  0  0
   15.2922  -10.3757    0.0000 C   0  0  0  0  0  0  0  0  0  0  0  0
   15.9627   -9.2264    0.0000 C   0  0  0  0  0  0  0  0  0  0  0  0
   17.3035   -9.2264    0.0000 C   0  0  0  0  0  0  0  0  0  0  0  0
   17.9740   -8.0771    0.0000 C   0  0  0  0  0  0  0  0  0  0  0  0
   19.2829   -8.0771    0.0000 C   0  0  0  0  0  0  0  0  0  0  0  0
   19.9533   -6.9278    0.0000 C   0  0  0  0  0  0  0  0  0  0  0  0
   21.2942   -6.9278    0.0000 C   0  0  0  0  0  0  0  0  0  0  0  0
   21.9646   -5.7785    0.0000 C   0  0  0  0  0  0  0  0  0  0  0  0
   23.2736   -5.7785    0.0000 C   0  0  0  0  0  0  0  0  0  0  0  0
   23.9440   -4.5972    0.0000 C   0  0  0  0  0  0  0  0  0  0  0  0
   25.2849   -4.5972    0.0000 C   0  0  0  0  0  0  0  0  0  0  0  0
   25.9553   -3.4479    0.0000 C   0  0  0  0  0  0  0  0  0  0  0  0
   27.2642   -3.4479    0.0000 C   0  0  0  0  0  0  0  0  0  0  0  0
   27.9347   -2.2986    0.0000 C   0  0  0  0  0  0  0  0  0  0  0  0
   29.2755   -2.2986    0.0000 C   0  0  0  0  0  0  0  0  0  0  0  0
   29.9460   -1.1493    0.0000 C   0  0  0  0  0  0  0  0  0  0  0  0
   31.2549   -1.1493    0.0000 C   0  0  0  0  0  0  0  0  0  0  0  0
   31.9253    0.0000    0.0000 C   0  0  0  0  0  0  0  0  0  0  0  0
   15.9627  -11.5250    0.0000 O   0  0  0  0  0  0  0  0  0  0  0  0
   17.9740  -10.3757    0.0000 O   0  0  0  0  0  0  0  0  0  0  0  0
  1  2  1  0  0  0  0
  2  3  1  0  0  0  0
  3  4  1  0  0  0  0
  4  5  1  0  0  0  0
  5  6  1  0  0  0  0
  6  7  1  0  0  0  0
  7  8  1  0  0  0  0
  8  9  1  0  0  0  0
  9 10  1  0  0  0  0
 10 11  1  0  0  0  0
 11 12  1  0  0  0  0
 12 13  1  0  0  0  0
 13 14  1  0  0  0  0
 14 15  1  0  0  0  0
 15 16  1  0  0  0  0
 16 17  1  0  0  0  0
 16 34  2  0  0  0  0
 17 18  1  0  0  0  0
 18 19  1  0  0  0  0
 18 35  2  0  0  0  0
 19 20  1  0  0  0  0
 20 21  1  0  0  0  0
 21 22  1  0  0  0  0
 22 23  1  0  0  0  0
 23 24  1  0  0  0  0
 24 25  1  0  0  0  0
 25 26  1  0  0  0  0
 26 27  1  0  0  0  0
 27 28  1  0  0  0  0
 28 29  1  0  0  0  0
 29 30  1  0  0  0  0
 30 31  1  0  0  0  0
 31 32  1  0  0  0  0
 32 33  1  0  0  0  0
M  END
>  <DSSTox_RID>
40834

>  <DSSTox_CID>
20247

>  <DSSTox_Generic_SID>
40247

>  <DSSTox_FileID>
1481_CPDBAS_v5d

>  <STRUCTURE_Formula>
C33H64O2

>  <STRUCTURE_MolecularWeight>
492.8601

>  <STRUCTURE_ChemicalType>
defined organic

>  <STRUCTURE_TestedForm_DefinedOrganic>
parent

>  <STRUCTURE_Shown>
tested chemical

>  <TestSubstance_ChemicalName>
n-Tritriacontane-16,18-dione

>  <TestSubstance_CASRN>
24514-86-1

>  <TestSubstance_Description>
single chemical compound

>  <STRUCTURE_ChemicalName_IUPAC>
tritriacontane-16,18-dione

>  <STRUCTURE_SMILES>
O=C(CC(CCCCCCCCCCCCCCC)=O)CCCCCCCCCCCCCCC

>  <STRUCTURE_Parent_SMILES>
O=C(CC(CCCCCCCCCCCCCCC)=O)CCCCCCCCCCCCCCC

>  <STRUCTURE_InChI>
InChI=1/C33H64O2/c1-3-5-7-9-11-13-15-17-19-21-23-25-27-29-32(34)31-33(35)30-28-26-24-22-20-18-16-14-12-10-8-6-4-2/h3-31H2,1-2H3

>  <STRUCTURE_InChIKey>
BYKYTXUAKJDVPV-UHFFFAOYAB

>  <StudyType>
Carcinogenicity

>  <Endpoint>
TD50; Tumor Target Sites

>  <Species>
rat

>  <ActivityScore_CPDBAS_Rat>
0

>  <TD50_Rat_Note>
no positive results

>  <TargetSites_Rat_Female>
no positive results

>  <ActivityOutcome_CPDBAS_Rat>
inactive

>  <ActivityOutcome_CPDBAS_SingleCellCall>
active

>  <Note_CPDBAS>
Rat added v5a; ChemicalName corrected v5a; chemical added v5a

>  <ChemicalPage_URL>
http://potency.berkeley.edu/chempages/N-TRITRIACONTANE-16-18-DIONE.html

$$$$



 15 16  0  0  0  0  0  0  0  0999 V2000
    7.1512   -3.2855    0.0000 N   0  0  0  0  0  0  0  0  0  0  0  0
    6.2103   -2.3445    0.0000 C   0  0  3  0  0  0  0  0  0  0  0  0
    4.9478   -2.7523    0.0000 C   0  0  0  0  0  0  0  0  0  0  0  0
    3.9598   -1.8662    0.0000 C   0  0  0  0  0  0  0  0  0  0  0  0
    4.1010   -0.5410    0.0000 C   0  0  0  0  0  0  0  0  0  0  0  0
    2.8856    0.0000    0.0000 N   0  0  0  0  0  0  0  0  0  0  0  0
    1.9917   -0.9880    0.0000 C   0  0  0  0  0  0  0  0  0  0  0  0
    2.6582   -2.1407    0.0000 C   0  0  0  0  0  0  0  0  0  0  0  0
    1.9917   -3.2933    0.0000 C   0  0  0  0  0  0  0  0  0  0  0  0
    0.6665   -3.2933    0.0000 C   0  0  0  0  0  0  0  0  0  0  0  0
    0.0000   -2.1407    0.0000 C   0  0  0  0  0  0  0  0  0  0  0  0
    0.6665   -0.9880    0.0000 C   0  0  0  0  0  0  0  0  0  0  0  0
    6.5553   -1.0586    0.0000 C   0  0  0  0  0  0  0  0  0  0  0  0
    5.6143   -0.1176    0.0000 O   0  0  0  0  0  0  0  0  0  0  0  0
    7.8412   -0.7136    0.0000 O   0  0  0  0  0  0  0  0  0  0  0  0
  1  2  1  0  0  0  0
  2  3  1  0  0  0  0
  2 13  1  0  0  0  0
  3  4  1  0  0  0  0
  4  5  2  0  0  0  0
  4  8  1  0  0  0  0
  5  6  1  0  0  0  0
  6  7  1  0  0  0  0
  7  8  2  0  0  0  0
  7 12  1  0  0  0  0
  8  9  1  0  0  0  0
  9 10  2  0  0  0  0
 10 11  1  0  0  0  0
 11 12  2  0  0  0  0
 13 14  2  0  0  0  0
 13 15  1  0  0  0  0
M  END
>  <DSSTox_RID>
21418

>  <DSSTox_CID>
1418

>  <DSSTox_Generic_SID>
21418

>  <DSSTox_FileID>
1484_CPDBAS_v5d

>  <STRUCTURE_Formula>
C11H12N2O2

>  <STRUCTURE_MolecularWeight>
204.228

>  <STRUCTURE_ChemicalType>
defined organic

>  <STRUCTURE_TestedForm_DefinedOrganic>
parent

>  <STRUCTURE_Shown>
tested chemical

>  <TestSubstance_ChemicalName>
dl-Tryptophan

>  <TestSubstance_CASRN>
54-12-6

>  <TestSubstance_Description>
single chemical compound

>  <ChemicalNote>
d- [153-94-6], l- [73-22-3]

>  <STRUCTURE_ChemicalName_IUPAC>
tryptophan

>  <STRUCTURE_SMILES>
NC(CC1=CNC2=C1C=CC=C2)C(=O)O

>  <STRUCTURE_Parent_SMILES>
NC(CC1=CNC2=C1C=CC=C2)C(=O)O

>  <STRUCTURE_InChI>
InChI=1/C11H12N2O2/c12-9(11(14)15)5-7-6-13-10-4-2-1-3-8(7)10/h1-4,6,9,13H,5,12H2,(H,14,15)/f/h14H

>  <STRUCTURE_InChIKey>
QIVBCDIJIAJPQS-YHMJCDSICS

>  <StudyType>
Carcinogenicity

>  <Endpoint>
TD50; Tumor Target Sites

>  <Species>
rat

>  <ActivityScore_CPDBAS_Rat>
0

>  <TD50_Rat_Note>
no positive results

>  <TargetSites_Rat_Male>
no positive results

>  <ActivityOutcome_CPDBAS_Rat>
inactive

>  <ActivityOutcome_CPDBAS_SingleCellCall>
inactive

>  <ChemicalPage_URL>
http://potency.berkeley.edu/chempages/DL-TRYPTOPHAN.html

$$$$



 15 16  0  0  1  0  0  0  0  0999 V2000
    7.1570   -1.2829    0.0000 C   0  0  0  0  0  0  0  0  0  0  0  0
    6.5578   -3.5110    0.0000 N   0  0  0  0  0  0  0  0  0  0  0  0
    6.2117   -2.2197    0.0000 C   0  0  1  0  0  0  0  0  0  0  0  0
    4.9458   -1.8146    0.0000 C   0  0  0  0  0  0  0  0  0  0  0  0
    3.9583   -2.7008    0.0000 C   0  0  0  0  0  0  0  0  0  0  0  0
    4.1018   -4.0258    0.0000 C   0  0  0  0  0  0  0  0  0  0  0  0
    2.8864   -4.5660    0.0000 N   0  0  0  0  0  0  0  0  0  0  0  0
    1.9918   -3.5785    0.0000 C   0  0  0  0  0  0  0  0  0  0  0  0
    0.6667   -3.5785    0.0000 C   0  0  0  0  0  0  0  0  0  0  0  0
    0.0000   -2.4222    0.0000 C   0  0  0  0  0  0  0  0  0  0  0  0
    0.6667   -1.2744    0.0000 C   0  0  0  0  0  0  0  0  0  0  0  0
    1.9918   -1.2744    0.0000 C   0  0  0  0  0  0  0  0  0  0  0  0
    2.6586   -2.4222    0.0000 C   0  0  0  0  0  0  0  0  0  0  0  0
    6.8110    0.0000    0.0000 O   0  0  0  0  0  0  0  0  0  0  0  0
    8.4398   -1.6289    0.0000 O   0  0  0  0  0  0  0  0  0  0  0  0
  1  3  1  0  0  0  0
  1 14  2  0  0  0  0
  1 15  1  0  0  0  0
  3  2  1  1  0  0  0
  3  4  1  0  0  0  0
  4  5  1  0  0  0  0
  5  6  2  0  0  0  0
  5 13  1  0  0  0  0
  6  7  1  0  0  0  0
  7  8  1  0  0  0  0
  8  9  2  0  0  0  0
  8 13  1  0  0  0  0
  9 10  1  0  0  0  0
 10 11  2  0  0  0  0
 11 12  1  0  0  0  0
 12 13  2  0  0  0  0
M  END
>  <DSSTox_RID>
21419

>  <DSSTox_CID>
1419

>  <DSSTox_Generic_SID>
21419

>  <DSSTox_FileID>
1485_CPDBAS_v5d

>  <STRUCTURE_Formula>
C11H12N2O2

>  <STRUCTURE_MolecularWeight>
204.2252

>  <STRUCTURE_ChemicalType>
defined organic

>  <STRUCTURE_TestedForm_DefinedOrganic>
parent

>  <STRUCTURE_Shown>
tested chemical

>  <TestSubstance_ChemicalName>
l-Tryptophan

>  <TestSubstance_CASRN>
73-22-3

>  <TestSubstance_Description>
single chemical compound

>  <ChemicalNote>
stereochem, replicate 2D structure of [54-12-6]

>  <STRUCTURE_ChemicalName_IUPAC>
L-tryptophan

>  <STRUCTURE_SMILES>
O=C(O)[C@@H](N)CC1=CNC2=C1C=CC=C2

>  <STRUCTURE_Parent_SMILES>
O=C(O)[C@@H](N)CC1=CNC2=C1C=CC=C2

>  <STRUCTURE_InChI>
InChI=1/C11H12N2O2/c12-9(11(14)15)5-7-6-13-10-4-2-1-3-8(7)10/h1-4,6,9,13H,5,12H2,(H,14,15)/t9-/m0/s1/f/h14H

>  <STRUCTURE_InChIKey>
QIVBCDIJIAJPQS-FKOBDKTLDJ

>  <StudyType>
Carcinogenicity

>  <Endpoint>
TD50; Tumor Target Sites

>  <Species>
rat; mouse

>  <ActivityOutcome_CPDBAS_Mutagenicity>
inactive

>  <ActivityScore_CPDBAS_Rat>
0

>  <TD50_Rat_Note>
no positive results

>  <TargetSites_Rat_Male>
no positive results

>  <TargetSites_Rat_Female>
no positive results

>  <ActivityOutcome_CPDBAS_Rat>
inactive

>  <ActivityScore_CPDBAS_Mouse>
0

>  <TD50_Mouse_Note>
no positive results

>  <TargetSites_Mouse_Male>
no positive results

>  <TargetSites_Mouse_Female>
no positive results

>  <ActivityOutcome_CPDBAS_Mouse>
inactive

>  <ActivityOutcome_CPDBAS_SingleCellCall>
inactive

>  <ActivityOutcome_CPDBAS_MultiCellCall>
inactive

>  <ActivityOutcome_CPDBAS_MultiCellCall_Details>
multisex inactive; multispecies inactive

>  <NTP_TechnicalReport>
TR 71

>  <ChemicalPage_URL>
http://potency.berkeley.edu/chempages/L-TRYPTOPHAN.html

$$$$



 27 28  0  0  0  0  0  0  0  0999 V2000
    2.2921   -2.0015    0.0000 C   0  0  0  0  0  0  0  0  0  0  0  0
   13.8331   -2.0015    0.0000 C   0  0  0  0  0  0  0  0  0  0  0  0
    5.7625   -4.0031    0.0000 C   0  0  0  0  0  0  0  0  0  0  0  0
   10.3789   -4.0031    0.0000 C   0  0  0  0  0  0  0  0  0  0  0  0
   11.5249   -4.6649    0.0000 C   0  0  0  0  0  0  0  0  0  0  0  0
    4.6003   -4.6649    0.0000 C   0  0  0  0  0  0  0  0  0  0  0  0
    1.1622   -2.6633    0.0000 C   0  0  0  0  0  0  0  0  0  0  0  0
   14.9792   -2.6633    0.0000 C   0  0  0  0  0  0  0  0  0  0  0  0
    6.9085   -4.6649    0.0000 C   0  0  0  0  0  0  0  0  0  0  0  0
    9.2167   -4.6649    0.0000 C   0  0  0  0  0  0  0  0  0  0  0  0
    8.0707   -4.0031    0.0000 C   0  0  0  0  0  0  0  0  0  0  0  0
   12.6871   -2.6633    0.0000 C   0  0  0  0  0  0  0  0  0  0  0  0
    3.4542   -2.6633    0.0000 C   0  0  0  0  0  0  0  0  0  0  0  0
    3.4542   -4.0031    0.0000 C   0  0  0  0  0  0  0  0  0  0  0  0
   12.6871   -4.0031    0.0000 C   0  0  0  0  0  0  0  0  0  0  0  0
    6.9085   -6.0046    0.0000 O   0  0  0  0  0  0  0  0  0  0  0  0
    9.2167   -6.0046    0.0000 O   0  0  0  0  0  0  0  0  0  0  0  0
    1.1622   -4.0031    0.0000 C   0  0  0  0  0  0  0  0  0  0  0  0
   14.9792   -4.0031    0.0000 C   0  0  0  0  0  0  0  0  0  0  0  0
   13.8331   -4.6649    0.0000 C   0  0  0  0  0  0  0  0  0  0  0  0
    2.2921   -4.6649    0.0000 C   0  0  0  0  0  0  0  0  0  0  0  0
    2.2921   -0.6779    0.0000 O   0  0  0  0  0  0  0  0  0  0  0  0
   13.8331   -0.6779    0.0000 O   0  0  0  0  0  0  0  0  0  0  0  0
    0.0000   -2.0015    0.0000 O   0  0  0  0  0  0  0  0  0  0  0  0
   16.1414   -2.0015    0.0000 O   0  0  0  0  0  0  0  0  0  0  0  0
   14.9792    0.0000    0.0000 C   0  0  0  0  0  0  0  0  0  0  0  0
    1.1622    0.0000    0.0000 C   0  0  0  0  0  0  0  0  0  0  0  0
  1  7  1  0  0  0  0
  1 13  2  0  0  0  0
  1 22  1  0  0  0  0
  2 12  2  0  0  0  0
  2 23  1  0  0  0  0
  2  8  1  0  0  0  0
  3  6  2  0  0  0  0
  3  9  1  0  0  0  0
  4 10  1  0  0  0  0
  4  5  2  0  0  0  0
  5 15  1  0  0  0  0
  6 14  1  0  0  0  0
  7 18  2  0  0  0  0
  7 24  1  0  0  0  0
  8 19  2  0  0  0  0
  8 25  1  0  0  0  0
  9 11  1  0  0  0  0
  9 16  2  0  0  0  0
 10 11  1  0  0  0  0
 10 17  2  0  0  0  0
 12 15  1  0  0  0  0
 13 14  1  0  0  0  0
 14 21  2  0  0  0  0
 15 20  2  0  0  0  0
 18 21  1  0  0  0  0
 19 20  1  0  0  0  0
 22 27  1  0  0  0  0
 23 26  1  0  0  0  0
M  END
>  <DSSTox_RID>
21421

>  <DSSTox_CID>
1421

>  <DSSTox_Generic_SID>
21421

>  <DSSTox_FileID>
1487_CPDBAS_v5d

>  <STRUCTURE_Formula>
C21H20O6

>  <STRUCTURE_MolecularWeight>
368.3799

>  <STRUCTURE_ChemicalType>
defined organic

>  <STRUCTURE_TestedForm_DefinedOrganic>
parent

>  <STRUCTURE_Shown>
tested chemical

>  <TestSubstance_ChemicalName>
Turmeric (>98% curcurmin)

>  <TestSubstance_CASRN>
458-37-7

>  <TestSubstance_Description>
single chemical compound

>  <ChemicalNote>
structure shown is curcurmin,  tautomers, stereochem

>  <STRUCTURE_ChemicalName_IUPAC>
(1E,6E)-1,7-bis[4-hydroxy-3-(methyloxy)phenyl]hepta-1,6-diene-3,5-dione

>  <STRUCTURE_SMILES>
O=C(CC(/C=C/C2=CC=C(O)C(OC)=C2)=O)/C=C/C1=CC=C(O)C(OC)=C1

>  <STRUCTURE_Parent_SMILES>
O=C(CC(/C=C/C2=CC=C(O)C(OC)=C2)=O)/C=C/C1=CC=C(O)C(OC)=C1

>  <STRUCTURE_InChI>
InChI=1/C21H20O6/c1-26-20-11-14(5-9-18(20)24)3-7-16(22)13-17(23)8-4-15-6-10-19(25)21(12-15)27-2/h3-12,24-25H,13H2,1-2H3/b7-3+,8-4+

>  <STRUCTURE_InChIKey>
VFLDPWHFBUODDF-FCXRPNKRBF

>  <StudyType>
Carcinogenicity

>  <Endpoint>
TD50; Tumor Target Sites

>  <Species>
rat

>  <ActivityOutcome_CPDBAS_Mutagenicity>
inactive

>  <ActivityScore_CPDBAS_Rat>
0

>  <TD50_Rat_Note>
no positive results

>  <TargetSites_Rat_Male>
no positive results

>  <ActivityOutcome_CPDBAS_Rat>
inactive

>  <ActivityOutcome_CPDBAS_SingleCellCall>
inactive

>  <Note_CPDBAS>
Rat added v2a

>  <ChemicalPage_URL>
http://potency.berkeley.edu/chempages/TURMERIC%20(>98%25%20CURCUMIN).html

$$$$



  8  8  0  0  0  0  0  0  0  0999 V2000
    4.6080   -2.6588    0.0000 O   0  0  0  0  0  0  0  0  0  0  0  0
    3.4560   -1.9953    0.0000 C   0  0  0  0  0  0  0  0  0  0  0  0
    2.3040   -2.6588    0.0000 N   0  0  0  0  0  0  0  0  0  0  0  0
    1.1520   -1.9953    0.0000 C   0  0  0  0  0  0  0  0  0  0  0  0
    0.0000   -2.6588    0.0000 O   0  0  0  0  0  0  0  0  0  0  0  0
    1.1520   -0.6635    0.0000 N   0  0  0  0  0  0  0  0  0  0  0  0
    2.3040    0.0000    0.0000 C   0  0  0  0  0  0  0  0  0  0  0  0
    3.4560   -0.6635    0.0000 C   0  0  0  0  0  0  0  0  0  0  0  0
  1  2  2  0  0  0  0
  2  3  1  0  0  0  0
  2  8  1  0  0  0  0
  3  4  1  0  0  0  0
  4  5  2  0  0  0  0
  4  6  1  0  0  0  0
  6  7  1  0  0  0  0
  7  8  2  0  0  0  0
M  END
>  <DSSTox_RID>
21424

>  <DSSTox_CID>
1424

>  <DSSTox_Generic_SID>
21424

>  <DSSTox_FileID>
1490_CPDBAS_v5d

>  <STRUCTURE_Formula>
C4H4N2O2

>  <STRUCTURE_MolecularWeight>
112.0878

>  <STRUCTURE_ChemicalType>
defined organic

>  <STRUCTURE_TestedForm_DefinedOrganic>
parent

>  <STRUCTURE_Shown>
tested chemical

>  <TestSubstance_ChemicalName>
Uracil

>  <TestSubstance_CASRN>
66-22-8

>  <TestSubstance_Description>
single chemical compound

>  <STRUCTURE_ChemicalName_IUPAC>
pyrimidine-2,4(1H,3H)-dione

>  <STRUCTURE_SMILES>
O=C1NC(=O)NC=C1

>  <STRUCTURE_Parent_SMILES>
O=C1NC(=O)NC=C1

>  <STRUCTURE_InChI>
InChI=1/C4H4N2O2/c7-3-1-2-5-4(8)6-3/h1-2H,(H2,5,6,7,8)/f/h5-6H

>  <STRUCTURE_InChIKey>
ISAKRJDGNUQOIC-JYEHRPOACX

>  <StudyType>
Carcinogenicity

>  <Endpoint>
TD50; Tumor Target Sites

>  <Species>
rat; mouse

>  <ActivityOutcome_CPDBAS_Mutagenicity>
inactive

>  <TD50_Rat_mg>
671

>  <TD50_Rat_mmol>
5.99

>  <ActivityScore_CPDBAS_Rat>
18

>  <TD50_Rat_Note>
TD50 is harmonic mean of more than one positive test; greater than ten-fold variation among TD50 values for positive results

>  <TargetSites_Rat_Male>
urinary bladder

>  <TargetSites_Rat_Female>
urinary bladder

>  <ActivityOutcome_CPDBAS_Rat>
active

>  <TD50_Mouse_mg>
2750

>  <TD50_Mouse_mmol>
24.5

>  <ActivityScore_CPDBAS_Mouse>
13

>  <TD50_Mouse_Note>
TD50 is harmonic mean of more than one positive test; greater than ten-fold variation among TD50 values for positive results

>  <TargetSites_Mouse_Male>
urinary bladder

>  <TargetSites_Mouse_Female>
urinary bladder

>  <ActivityOutcome_CPDBAS_Mouse>
active

>  <ActivityOutcome_CPDBAS_SingleCellCall>
active

>  <ActivityOutcome_CPDBAS_MultiCellCall>
active

>  <ActivityOutcome_CPDBAS_MultiCellCall_Details>
multisex active; multispecies active

>  <ChemicalPage_URL>
http://potency.berkeley.edu/chempages/URACIL.html

$$$$



 28 30  0  0  0  0  0  0  0  0999 V2000
   13.8102   -4.6682    0.0000 C   0  0  0  0  0  0  0  0  0  0  0  0
   12.6432   -3.9949    0.0000 N   0  0  0  0  0  0  0  0  0  0  0  0
   13.8102   -5.9849    0.0000 N   0  0  0  0  0  0  0  0  0  0  0  0
   11.4911   -4.6682    0.0000 C   0  0  0  0  0  0  0  0  0  0  0  0
   12.6432   -6.6582    0.0000 C   0  0  0  0  0  0  0  0  0  0  0  0
   11.4911   -5.9849    0.0000 C   0  0  0  0  0  0  0  0  0  0  0  0
    3.4563   -2.6633    0.0000 N   0  0  0  0  0  0  0  0  0  0  0  0
    2.2892   -1.9900    0.0000 C   0  0  0  0  0  0  0  0  0  0  0  0
    5.7455   -3.9800    0.0000 N   0  0  0  0  0  0  0  0  0  0  0  0
   14.9623   -3.9800    0.0000 O   0  0  0  0  0  0  0  0  0  0  0  0
   12.6432   -7.9899    0.0000 O   0  0  0  0  0  0  0  0  0  0  0  0
   10.3390   -3.9800    0.0000 N   0  0  0  0  0  0  0  0  0  0  0  0
    3.4563   -3.9800    0.0000 C   0  0  0  0  0  0  0  0  0  0  0  0
    4.5934   -1.9900    0.0000 C   0  0  0  0  0  0  0  0  0  0  0  0
    1.1521   -2.6633    0.0000 C   0  0  0  0  0  0  0  0  0  0  0  0
   12.6432   -2.6633    0.0000 C   0  0  0  0  0  0  0  0  0  0  0  0
   14.9623   -6.6732    0.0000 C   0  0  0  0  0  0  0  0  0  0  0  0
    4.5934   -4.6533    0.0000 C   0  0  0  0  0  0  0  0  0  0  0  0
    5.7455   -2.6633    0.0000 C   0  0  0  0  0  0  0  0  0  0  0  0
    1.1521   -3.9650    0.0000 O   0  0  0  0  0  0  0  0  0  0  0  0
    6.8827   -4.6533    0.0000 C   0  0  0  0  0  0  0  0  0  0  0  0
    8.0497   -3.9800    0.0000 C   0  0  0  0  0  0  0  0  0  0  0  0
    2.2892   -0.6583    0.0000 C   0  0  0  0  0  0  0  0  0  0  0  0
    9.1869   -4.6533    0.0000 C   0  0  0  0  0  0  0  0  0  0  0  0
    0.0000   -1.9900    0.0000 C   0  0  0  0  0  0  0  0  0  0  0  0
    0.0000   -4.6383    0.0000 C   0  0  0  0  0  0  0  0  0  0  0  0
    1.1521    0.0000    0.0000 C   0  0  0  0  0  0  0  0  0  0  0  0
    0.0000   -0.6583    0.0000 C   0  0  0  0  0  0  0  0  0  0  0  0
  1  2  1  0  0  0  0
  1  3  1  0  0  0  0
  1 10  2  0  0  0  0
  2  4  1  0  0  0  0
  2 16  1  0  0  0  0
  3  5  1  0  0  0  0
  3 17  1  0  0  0  0
  4 12  1  0  0  0  0
  4  6  2  0  0  0  0
  5  6  1  0  0  0  0
  5 11  2  0  0  0  0
  7 14  1  0  0  0  0
  7  8  1  0  0  0  0
  7 13  1  0  0  0  0
  8 15  2  0  0  0  0
  8 23  1  0  0  0  0
  9 21  1  0  0  0  0
  9 18  1  0  0  0  0
  9 19  1  0  0  0  0
 12 24  1  0  0  0  0
 13 18  1  0  0  0  0
 14 19  1  0  0  0  0
 15 20  1  0  0  0  0
 15 25  1  0  0  0  0
 20 26  1  0  0  0  0
 21 22  1  0  0  0  0
 22 24  1  0  0  0  0
 23 27  2  0  0  0  0
 25 28  2  0  0  0  0
 27 28  1  0  0  0  0
M  END
>  <DSSTox_RID>
21425

>  <DSSTox_CID>
1425

>  <DSSTox_Generic_SID>
21425

>  <DSSTox_FileID>
1491_CPDBAS_v5d

>  <STRUCTURE_Formula>
C20H29N5O3

>  <STRUCTURE_MolecularWeight>
387.476

>  <STRUCTURE_ChemicalType>
defined organic

>  <STRUCTURE_TestedForm_DefinedOrganic>
parent

>  <STRUCTURE_Shown>
tested chemical

>  <TestSubstance_ChemicalName>
Urapidil

>  <TestSubstance_CASRN>
34661-75-1

>  <TestSubstance_Description>
single chemical compound

>  <STRUCTURE_ChemicalName_IUPAC>
1,3-dimethyl-6-[(3-{4-[2-(methyloxy)phenyl]piperazin-1-yl}propyl)amino]pyrimidine-2,4(1H,3H)-dione

>  <STRUCTURE_SMILES>
COc3ccccc3N2CCN(CCCN\C1=C\C(=O)N(C)C(=O)N1C)CC2

>  <STRUCTURE_Parent_SMILES>
COc3ccccc3N2CCN(CCCN\C1=C\C(=O)N(C)C(=O)N1C)CC2

>  <STRUCTURE_InChI>
InChI=1/C20H29N5O3/c1-22-18(15-19(26)23(2)20(22)27)21-9-6-10-24-11-13-25(14-12-24)16-7-4-5-8-17(16)28-3/h4-5,7-8,15,21H,6,9-14H2,1-3H3

>  <STRUCTURE_InChIKey>
ICMGLRUYEQNHPF-UHFFFAOYAN

>  <StudyType>
Carcinogenicity

>  <Endpoint>
TD50; Tumor Target Sites

>  <Species>
rat

>  <ActivityScore_CPDBAS_Rat>
0

>  <TD50_Rat_Note>
no positive results

>  <TargetSites_Rat_Male>
no positive results

>  <TargetSites_Rat_Female>
no positive results

>  <ActivityOutcome_CPDBAS_Rat>
inactive

>  <ActivityOutcome_CPDBAS_SingleCellCall>
inactive

>  <ActivityOutcome_CPDBAS_MultiCellCall>
inactive

>  <ActivityOutcome_CPDBAS_MultiCellCall_Details>
multisex inactive

>  <Note_CPDBAS>
Rat added v2a

>  <ChemicalPage_URL>
http://potency.berkeley.edu/chempages/URAPIDIL.html

$$$$



  4  3  0  0  0  0  0  0  0  0999 V2000
    1.3292   -1.1518    0.0000 C   0  0  0  0  0  0  0  0  0  0  0  0
    1.9950    0.0000    0.0000 N   0  0  0  0  0  0  0  0  0  0  0  0
    1.9950   -2.3037    0.0000 N   0  0  0  0  0  0  0  0  0  0  0  0
    0.0000   -1.1518    0.0000 O   0  0  0  0  0  0  0  0  0  0  0  0
  1  2  1  0  0  0  0
  1  3  1  0  0  0  0
  1  4  2  0  0  0  0
M  END
>  <DSSTox_RID>
21426

>  <DSSTox_CID>
1426

>  <DSSTox_Generic_SID>
21426

>  <DSSTox_FileID>
1492_CPDBAS_v5d

>  <STRUCTURE_Formula>
CH4N2O

>  <STRUCTURE_MolecularWeight>
60.0553

>  <STRUCTURE_ChemicalType>
defined organic

>  <STRUCTURE_TestedForm_DefinedOrganic>
parent

>  <STRUCTURE_Shown>
tested chemical

>  <TestSubstance_ChemicalName>
Urea

>  <TestSubstance_CASRN>
57-13-6

>  <TestSubstance_Description>
single chemical compound

>  <STRUCTURE_ChemicalName_IUPAC>
urea

>  <STRUCTURE_SMILES>
C(N)(N)=O

>  <STRUCTURE_Parent_SMILES>
C(N)(N)=O

>  <STRUCTURE_InChI>
InChI=1/CH4N2O/c2-1(3)4/h(H4,2,3,4)/f/h2-3H2

>  <STRUCTURE_InChIKey>
XSQUKJJJFZCRTK-UBUOBULFCP

>  <StudyType>
Carcinogenicity

>  <Endpoint>
TD50; Tumor Target Sites

>  <Species>
rat; mouse

>  <ActivityOutcome_CPDBAS_Mutagenicity>
inactive

>  <ActivityScore_CPDBAS_Rat>
0

>  <TD50_Rat_Note>
no positive results

>  <TargetSites_Rat_Male>
no positive results

>  <TargetSites_Rat_Female>
no positive results

>  <ActivityOutcome_CPDBAS_Rat>
inactive

>  <ActivityScore_CPDBAS_Mouse>
0

>  <TD50_Mouse_Note>
no positive results

>  <TargetSites_Mouse_Male>
no positive results

>  <TargetSites_Mouse_Female>
no positive results

>  <ActivityOutcome_CPDBAS_Mouse>
inactive

>  <ActivityOutcome_CPDBAS_SingleCellCall>
inactive

>  <ActivityOutcome_CPDBAS_MultiCellCall>
inactive

>  <ActivityOutcome_CPDBAS_MultiCellCall_Details>
multisex inactive; multispecies inactive

>  <ChemicalPage_URL>
http://potency.berkeley.edu/chempages/UREA.html

$$$$



  6  5  0  0  0  0  0  0  0  0999 V2000
    4.6084   -1.9954    0.0000 N   0  0  0  0  0  0  0  0  0  0  0  0
    3.4563   -1.3318    0.0000 C   0  0  0  0  0  0  0  0  0  0  0  0
    3.4563    0.0000    0.0000 O   0  0  0  0  0  0  0  0  0  0  0  0
    2.3042   -1.9954    0.0000 O   0  0  0  0  0  0  0  0  0  0  0  0
    1.1521   -1.3318    0.0000 C   0  0  0  0  0  0  0  0  0  0  0  0
    0.0000   -1.9954    0.0000 C   0  0  0  0  0  0  0  0  0  0  0  0
  1  2  1  0  0  0  0
  2  3  2  0  0  0  0
  2  4  1  0  0  0  0
  4  5  1  0  0  0  0
  5  6  1  0  0  0  0
M  END
>  <DSSTox_RID>
21427

>  <DSSTox_CID>
1427

>  <DSSTox_Generic_SID>
21427

>  <DSSTox_FileID>
1493_CPDBAS_v5d

>  <STRUCTURE_Formula>
C3H7NO2

>  <STRUCTURE_MolecularWeight>
89.0932

>  <STRUCTURE_ChemicalType>
defined organic

>  <STRUCTURE_TestedForm_DefinedOrganic>
parent

>  <STRUCTURE_Shown>
tested chemical

>  <TestSubstance_ChemicalName>
Urethane

>  <TestSubstance_CASRN>
51-79-6

>  <TestSubstance_Description>
single chemical compound

>  <STRUCTURE_ChemicalName_IUPAC>
ethyl carbamate

>  <STRUCTURE_SMILES>
NC(=O)OCC

>  <STRUCTURE_Parent_SMILES>
NC(=O)OCC

>  <STRUCTURE_InChI>
InChI=1/C3H7NO2/c1-2-6-3(4)5/h2H2,1H3,(H2,4,5)/f/h4H2

>  <STRUCTURE_InChIKey>
JOYRKODLDBILNP-LGEMBHMGCP

>  <StudyType>
Carcinogenicity

>  <Endpoint>
TD50; Tumor Target Sites

>  <Species>
rat; mouse; hamster; rhesus; cynomolgus

>  <ActivityOutcome_CPDBAS_Mutagenicity>
active

>  <TD50_Rat_mg>
41.3

>  <TD50_Rat_mmol>
0.464

>  <ActivityScore_CPDBAS_Rat>
29

>  <TargetSites_Rat_BothSexes>
all tumor bearing animals

>  <ActivityOutcome_CPDBAS_Rat>
active

>  <TD50_Mouse_mg>
16.9

>  <TD50_Mouse_mmol>
0.19

>  <ActivityScore_CPDBAS_Mouse>
36

>  <TD50_Mouse_Note>
TD50 is harmonic mean of more than one positive test; greater than ten-fold variation among TD50 values for positive results

>  <TargetSites_Mouse_Male>
hematopoietic system; liver; lung; vascular system

>  <TargetSites_Mouse_Female>
lung

>  <ActivityOutcome_CPDBAS_Mouse>
active

>  <TD50_Hamster_mg>
65.2

>  <TD50_Hamster_mmol>
0.732

>  <ActivityScore_CPDBAS_Hamster>
29

>  <TD50_Hamster_Note>
TD50 is harmonic mean of more than one positive test

>  <TargetSites_Hamster_Male>
large intestine; skin; stomach

>  <TargetSites_Hamster_Female>
adrenal gland; large intestine; skin; stomach; thyroid gland

>  <ActivityOutcome_CPDBAS_Hamster>
active

>  <TD50_Rhesus_mg>
65.2

>  <TargetSites_Rhesus>
liver; small intestine; vascular system

>  <TD50_Cynomolgus_mg>
52.8

>  <TargetSites_Cynomolgus>
lung; pancreas; vascular system

>  <ActivityOutcome_CPDBAS_Dog_Primates>
active

>  <ActivityOutcome_CPDBAS_SingleCellCall>
active

>  <ActivityOutcome_CPDBAS_MultiCellCall>
active

>  <ActivityOutcome_CPDBAS_MultiCellCall_Details>
multisite active; multisex active; multispecies active

>  <ChemicalPage_URL>
http://potency.berkeley.edu/chempages/URETHANE.html

$$$$



 61 69  0  0  1  0  0  0  0  0999 V2000
    5.2768   -4.3543    0.0000 C   0  0  2  0  0  0  0  0  0  0  0  0
   12.8046   -6.1993    0.0000 C   0  0  1  0  0  0  0  0  0  0  0  0
   13.9301   -8.0075    0.0000 C   0  0  2  0  0  0  0  0  0  0  0  0
    4.1882   -3.7454    0.0000 C   0  0  0  0  0  0  0  0  0  0  0  0
   12.8046   -7.4355    0.0000 C   0  0  2  0  0  0  0  0  0  0  0  0
   14.9818   -6.1993    0.0000 C   0  0  2  0  0  0  0  0  0  0  0  0
   11.7529   -8.0075    0.0000 N   0  0  0  0  0  0  0  0  0  0  0  0
   13.9301   -5.6089    0.0000 C   0  0  2  0  0  0  0  0  0  0  0  0
   10.7013   -7.4355    0.0000 C   0  0  0  0  0  0  0  0  0  0  0  0
   14.9818   -7.4355    0.0000 C   0  0  1  0  0  0  0  0  0  0  0  0
   10.7013   -6.1993    0.0000 C   0  0  0  0  0  0  0  0  0  0  0  0
    8.5795   -6.1993    0.0000 C   0  0  0  0  0  0  0  0  0  0  0  0
    4.1882   -2.5277    0.0000 C   0  0  0  0  0  0  0  0  0  0  0  0
    3.1550   -4.3543    0.0000 N   0  0  0  0  0  0  0  0  0  0  0  0
    9.6127   -8.0075    0.0000 C   0  0  0  0  0  0  0  0  0  0  0  0
    9.6127   -5.6089    0.0000 C   0  0  0  0  0  0  0  0  0  0  0  0
   13.9301   -4.3543    0.0000 N   0  0  0  0  0  0  0  0  0  0  0  0
    5.2768   -5.6089    0.0000 C   0  0  0  0  0  0  0  0  0  0  0  0
    2.1403   -2.5277    0.0000 C   0  0  0  0  0  0  0  0  0  0  0  0
   14.5389   -9.1883    0.0000 C   0  0  0  0  0  0  0  0  0  0  0  0
    8.5795   -7.4355    0.0000 C   0  0  0  0  0  0  0  0  0  0  0  0
    2.1403   -3.7454    0.0000 C   0  0  0  0  0  0  0  0  0  0  0  0
    5.2768   -0.6273    0.0000 N   0  0  2  0  0  0  0  0  0  0  0  0
   11.7529   -5.6089    0.0000 C   0  0  0  0  0  0  0  0  0  0  0  0
    6.3469   -3.7454    0.0000 C   0  0  0  0  0  0  0  0  0  0  0  0
   16.1257   -8.0813    0.0000 O   0  0  0  0  0  0  0  0  0  0  0  0
   16.0519   -5.6089    0.0000 C   0  0  0  0  0  0  0  0  0  0  0  0
    3.1550   -1.9004    0.0000 C   0  0  0  0  0  0  0  0  0  0  0  0
    7.3986   -0.6458    0.0000 C   0  0  2  0  0  0  0  0  0  0  0  0
    6.3469   -2.5277    0.0000 C   0  0  2  0  0  0  0  0  0  0  0  0
   17.3434   -7.3802    0.0000 C   0  0  0  0  0  0  0  0  0  0  0  0
   11.7529   -4.3543    0.0000 C   0  0  0  0  0  0  0  0  0  0  0  0
   13.4504   -8.9300    0.0000 O   0  0  0  0  0  0  0  0  0  0  0  0
   16.0703   -4.3543    0.0000 C   0  0  0  0  0  0  0  0  0  0  0  0
    6.3469   -0.0738    0.0000 C   0  0  0  0  0  0  0  0  0  0  0  0
    5.2768   -1.9004    0.0000 C   0  0  0  0  0  0  0  0  0  0  0  0
   13.9301  -10.2953    0.0000 O   0  0  0  0  0  0  0  0  0  0  0  0
    6.3654   -6.3100    0.0000 O   0  0  0  0  0  0  0  0  0  0  0  0
    3.1550   -0.6273    0.0000 C   0  0  0  0  0  0  0  0  0  0  0  0
   17.3434   -8.8562    0.0000 O   0  0  0  0  0  0  0  0  0  0  0  0
    7.3986   -1.8635    0.0000 C   0  0  0  0  0  0  0  0  0  0  0  0
   16.2548   -6.9005    0.0000 C   0  0  0  0  0  0  0  0  0  0  0  0
   11.7529   -9.2806    0.0000 C   0  0  0  0  0  0  0  0  0  0  0  0
   14.9449   -3.7639    0.0000 C   0  0  0  0  0  0  0  0  0  0  0  0
   15.8674   -9.1883    0.0000 O   0  0  0  0  0  0  0  0  0  0  0  0
    4.1144   -6.2547    0.0000 O   0  0  0  0  0  0  0  0  0  0  0  0
    7.4355   -8.0997    0.0000 O   0  0  0  0  0  0  0  0  0  0  0  0
    8.5426    0.0000    0.0000 O   0  0  0  0  0  0  0  0  0  0  0  0
    1.0701   -1.9004    0.0000 C   0  0  0  0  0  0  0  0  0  0  0  0
    1.0701   -4.3543    0.0000 C   0  0  0  0  0  0  0  0  0  0  0  0
    8.5057   -1.2362    0.0000 C   0  0  0  0  0  0  0  0  0  0  0  0
   18.4504   -8.0075    0.0000 C   0  0  0  0  0  0  0  0  0  0  0  0
    3.0628   -5.6827    0.0000 C   0  0  0  0  0  0  0  0  0  0  0  0
   16.5316  -10.3322    0.0000 C   0  0  0  0  0  0  0  0  0  0  0  0
    6.3100   -7.4355    0.0000 C   0  0  0  0  0  0  0  0  0  0  0  0
   17.3250   -6.2547    0.0000 C   0  0  0  0  0  0  0  0  0  0  0  0
    9.5942   -0.6458    0.0000 C   0  0  0  0  0  0  0  0  0  0  0  0
    0.0000   -2.5277    0.0000 C   0  0  0  0  0  0  0  0  0  0  0  0
    0.0000   -3.7454    0.0000 C   0  0  0  0  0  0  0  0  0  0  0  0
   13.9301   -6.7898    0.0000 H   0  0  0  0  0  0  0  0  0  0  0  0
   12.8231   -8.2658    0.0000 H   0  0  0  0  0  0  0  0  0  0  0  0
  1  4  1  0  0  0  0
  1 12  1  6  0  0  0
  1 18  1  1  0  0  0
  1 25  1  0  0  0  0
  2 11  1  0  0  0  0
  2  5  1  0  0  0  0
  2  8  1  0  0  0  0
  2 24  1  1  0  0  0
  3  5  1  0  0  0  0
  3 20  1  6  0  0  0
  3 33  1  1  0  0  0
  3 10  1  0  0  0  0
  4 13  2  0  0  0  0
  4 14  1  0  0  0  0
  5 61  1  1  0  0  0
  5  7  1  0  0  0  0
  6  8  1  0  0  0  0
  6 10  1  0  0  0  0
  6 27  1  0  0  0  0
  6 42  1  6  0  0  0
  7  9  1  0  0  0  0
  7 43  1  0  0  0  0
  8 17  1  0  0  0  0
  8 60  1  6  0  0  0
  9 15  1  0  0  0  0
  9 11  2  0  0  0  0
 10 26  1  1  0  0  0
 11 16  1  0  0  0  0
 12 16  2  0  0  0  0
 12 21  1  0  0  0  0
 13 19  1  0  0  0  0
 13 28  1  0  0  0  0
 14 22  1  0  0  0  0
 15 21  2  0  0  0  0
 17 44  1  0  0  0  0
 17 32  1  0  0  0  0
 18 38  2  0  0  0  0
 18 46  1  0  0  0  0
 19 49  1  0  0  0  0
 19 22  2  0  0  0  0
 20 37  2  0  0  0  0
 20 45  1  0  0  0  0
 21 47  1  0  0  0  0
 22 50  1  0  0  0  0
 23 36  1  6  0  0  0
 23 39  1  0  0  0  0
 23 35  1  0  0  0  0
 24 32  1  0  0  0  0
 25 30  1  0  0  0  0
 26 31  1  0  0  0  0
 27 34  2  0  0  0  0
 28 39  1  0  0  0  0
 29 41  1  0  0  0  0
 29 35  1  0  0  0  0
 29 48  1  1  0  0  0
 29 51  1  6  0  0  0
 30 36  1  6  0  0  0
 30 41  1  0  0  0  0
 31 40  2  0  0  0  0
 31 52  1  0  0  0  0
 34 44  1  0  0  0  0
 42 56  1  0  0  0  0
 45 54  1  0  0  0  0
 46 53  1  0  0  0  0
 47 55  1  0  0  0  0
 49 58  2  0  0  0  0
 50 59  2  0  0  0  0
 51 57  1  0  0  0  0
 58 59  1  0  0  0  0
M  END
>  <DSSTox_RID>
21430

>  <DSSTox_CID>
1430

>  <DSSTox_Generic_SID>
21430

>  <DSSTox_FileID>
1496_CPDBAS_v5d

>  <STRUCTURE_Formula>
C46H58N4O9

>  <STRUCTURE_MolecularWeight>
810.9741

>  <STRUCTURE_ChemicalType>
defined organic

>  <STRUCTURE_TestedForm_DefinedOrganic>
parent

>  <STRUCTURE_Shown>
tested chemical

>  <TestSubstance_ChemicalName>
Vinblastine

>  <TestSubstance_CASRN>
865-21-4

>  <TestSubstance_Description>
single chemical compound

>  <ChemicalNote>
stereochem

>  <STRUCTURE_ChemicalName_IUPAC>
vincaleukoblastine

>  <STRUCTURE_SMILES>
O[C@@]2([C@](OC)=O)[C@@]1([H])[C@]([C@](N6CC=C5)([H])[C@]5(CC)[C@H]2OC(C)=O)(CC6)C3=C(C=C(OC)[C@]([C@@]([C@@](OC)=O)(C[C@@H]8CN(C[C@](O)(CC)C8)CC7)C4=C7C(C=CC=C9)=C9N4)=C3)N1C

>  <STRUCTURE_Parent_SMILES>
O[C@@]2([C@](OC)=O)[C@@]1([H])[C@]([C@](N6CC=C5)([H])[C@]5(CC)[C@H]2OC(C)=O)(CC6)C3=C(C=C(OC)[C@]([C@@]([C@@](OC)=O)(C[C@@H]8CN(C[C@](O)(CC)C8)CC7)C4=C7C(C=CC=C9)=C9N4)=C3)N1C

>  <STRUCTURE_InChI>
InChI=1/C46H58N4O9/c1-8-42(54)23-28-24-45(40(52)57-6,36-30(15-19-49(25-28)26-42)29-13-10-11-14-33(29)47-36)32-21-31-34(22-35(32)56-5)48(4)38-44(31)17-20-50-18-12-16-43(9-2,37(44)50)39(59-27(3)51)46(38,55)41(53)58-7/h10-14,16,21-22,28,37-39,47,54-55H,8-9,15,17-20,23-26H2,1-7H3/t28-,37+,38-,39-,42+,43-,44-,45+,46+/m1/s1

>  <STRUCTURE_InChIKey>
JXLYSJRDGCGARV-XQKSVPLYBI

>  <StudyType>
Carcinogenicity

>  <Endpoint>
TD50; Tumor Target Sites

>  <Species>
rat

>  <ActivityScore_CPDBAS_Rat>
0

>  <TD50_Rat_Note>
no positive results

>  <TargetSites_Rat_Male>
no positive results

>  <ActivityOutcome_CPDBAS_Rat>
inactive

>  <ActivityOutcome_CPDBAS_SingleCellCall>
inactive

>  <ChemicalPage_URL>
http://potency.berkeley.edu/chempages/VINBLASTINE.html

$$$$



  6  5  0  0  0  0  0  0  0  0999 V2000
    4.6084   -1.9954    0.0000 C   0  0  0  0  0  0  0  0  0  0  0  0
    3.4563   -1.3318    0.0000 C   0  0  0  0  0  0  0  0  0  0  0  0
    3.4563    0.0000    0.0000 O   0  0  0  0  0  0  0  0  0  0  0  0
    2.3042   -1.9954    0.0000 O   0  0  0  0  0  0  0  0  0  0  0  0
    1.1521   -1.3318    0.0000 C   0  0  0  0  0  0  0  0  0  0  0  0
    0.0000   -1.9954    0.0000 C   0  0  0  0  0  0  0  0  0  0  0  0
  1  2  1  0  0  0  0
  2  3  2  0  0  0  0
  2  4  1  0  0  0  0
  4  5  1  0  0  0  0
  5  6  2  0  0  0  0
M  END
>  <DSSTox_RID>
21431

>  <DSSTox_CID>
1431

>  <DSSTox_Generic_SID>
21431

>  <DSSTox_FileID>
1497_CPDBAS_v5d

>  <STRUCTURE_Formula>
C4H6O2

>  <STRUCTURE_MolecularWeight>
86.0892

>  <STRUCTURE_ChemicalType>
defined organic

>  <STRUCTURE_TestedForm_DefinedOrganic>
parent

>  <STRUCTURE_Shown>
tested chemical

>  <TestSubstance_ChemicalName>
Vinyl acetate

>  <TestSubstance_CASRN>
108-05-4

>  <TestSubstance_Description>
single chemical compound

>  <STRUCTURE_ChemicalName_IUPAC>
vinyl acetate

>  <STRUCTURE_SMILES>
CC(=O)OC=C

>  <STRUCTURE_Parent_SMILES>
CC(=O)OC=C

>  <STRUCTURE_InChI>
InChI=1/C4H6O2/c1-3-6-4(2)5/h3H,1H2,2H3

>  <STRUCTURE_InChIKey>
XTXRWKRVRITETP-UHFFFAOYAB

>  <StudyType>
Carcinogenicity

>  <Endpoint>
TD50; Tumor Target Sites

>  <Species>
rat; mouse

>  <ActivityOutcome_CPDBAS_Mutagenicity>
inactive

>  <TD50_Rat_mg>
341

>  <TD50_Rat_mmol>
3.96

>  <ActivityScore_CPDBAS_Rat>
20

>  <TD50_Rat_Note>
TD50 is harmonic mean of more than one positive test; greater than ten-fold variation among TD50 values for positive results

>  <TargetSites_Rat_Male>
liver; nasal cavity; thyroid gland

>  <TargetSites_Rat_Female>
liver; nasal cavity; thyroid gland; uterus

>  <ActivityOutcome_CPDBAS_Rat>
active

>  <TD50_Mouse_mg>
3920

>  <TD50_Mouse_mmol>
45.5

>  <ActivityScore_CPDBAS_Mouse>
10

>  <TargetSites_Mouse_Male>
no positive results

>  <TargetSites_Mouse_Female>
esophagus; oral cavity; stomach; uterus

>  <ActivityOutcome_CPDBAS_Mouse>
active

>  <ActivityOutcome_CPDBAS_SingleCellCall>
active

>  <ActivityOutcome_CPDBAS_MultiCellCall>
active

>  <ActivityOutcome_CPDBAS_MultiCellCall_Details>
multisite active; multisex active; multispecies active

>  <ChemicalPage_URL>
http://potency.berkeley.edu/chempages/VINYL%20ACETATE.html

$$$$



  3  2  0  0  0  0  0  0  0  0999 V2000
    2.3030   -0.6656    0.0000 C   0  0  0  0  0  0  0  0  0  0  0  0
    1.1515    0.0000    0.0000 C   0  0  0  0  0  0  0  0  0  0  0  0
    0.0000   -0.6656    0.0000 Br  0  0  0  0  0  0  0  0  0  0  0  0
  1  2  2  0  0  0  0
  2  3  1  0  0  0  0
M  END
>  <DSSTox_RID>
21432

>  <DSSTox_CID>
1432

>  <DSSTox_Generic_SID>
21432

>  <DSSTox_FileID>
1498_CPDBAS_v5d

>  <STRUCTURE_Formula>
C2H3Br

>  <STRUCTURE_MolecularWeight>
106.9492

>  <STRUCTURE_ChemicalType>
defined organic

>  <STRUCTURE_TestedForm_DefinedOrganic>
parent

>  <STRUCTURE_Shown>
tested chemical

>  <TestSubstance_ChemicalName>
Vinyl bromide

>  <TestSubstance_CASRN>
593-60-2

>  <TestSubstance_Description>
single chemical compound

>  <STRUCTURE_ChemicalName_IUPAC>
bromoethene

>  <STRUCTURE_SMILES>
C=CBr

>  <STRUCTURE_Parent_SMILES>
C=CBr

>  <STRUCTURE_InChI>
InChI=1/C2H3Br/c1-2-3/h2H,1H2

>  <STRUCTURE_InChIKey>
INLLPKCGLOXCIV-UHFFFAOYAI

>  <StudyType>
Carcinogenicity

>  <Endpoint>
TD50; Tumor Target Sites

>  <Species>
rat

>  <ActivityOutcome_CPDBAS_Mutagenicity>
active

>  <TD50_Rat_mg>
18.5

>  <TD50_Rat_mmol>
0.173

>  <ActivityScore_CPDBAS_Rat>
34

>  <TD50_Rat_Note>
TD50 is harmonic mean of more than one positive test

>  <TargetSites_Rat_Male>
ear Zymbals gland; liver; vascular system

>  <TargetSites_Rat_Female>
ear Zymbals gland; liver; vascular system

>  <ActivityOutcome_CPDBAS_Rat>
active

>  <ActivityOutcome_CPDBAS_SingleCellCall>
active

>  <ActivityOutcome_CPDBAS_MultiCellCall>
active

>  <ActivityOutcome_CPDBAS_MultiCellCall_Details>
multisite active; multisex active

>  <Note_CPDBAS>
Mutagenicity_SAL_CPDB added v3a; TargetSites_Rat modified v3a

>  <ChemicalPage_URL>
http://potency.berkeley.edu/chempages/VINYL%20BROMIDE.html

$$$$



  6  5  0  0  0  0  0  0  0  0999 V2000
    4.6084   -1.9954    0.0000 N   0  0  0  0  0  0  0  0  0  0  0  0
    3.4563   -1.3318    0.0000 C   0  0  0  0  0  0  0  0  0  0  0  0
    3.4563    0.0000    0.0000 O   0  0  0  0  0  0  0  0  0  0  0  0
    2.3042   -1.9954    0.0000 O   0  0  0  0  0  0  0  0  0  0  0  0
    1.1521   -1.3318    0.0000 C   0  0  0  0  0  0  0  0  0  0  0  0
    0.0000   -1.9954    0.0000 C   0  0  0  0  0  0  0  0  0  0  0  0
  1  2  1  0  0  0  0
  2  3  2  0  0  0  0
  2  4  1  0  0  0  0
  4  5  1  0  0  0  0
  5  6  2  0  0  0  0
M  END
>  <DSSTox_RID>
21433

>  <DSSTox_CID>
1433

>  <DSSTox_Generic_SID>
21433

>  <DSSTox_FileID>
1499_CPDBAS_v5d

>  <STRUCTURE_Formula>
C3H5NO2

>  <STRUCTURE_MolecularWeight>
87.0773

>  <STRUCTURE_ChemicalType>
defined organic

>  <STRUCTURE_TestedForm_DefinedOrganic>
parent

>  <STRUCTURE_Shown>
tested chemical

>  <TestSubstance_ChemicalName>
Vinyl carbamate

>  <TestSubstance_CASRN>
15805-73-9

>  <TestSubstance_Description>
single chemical compound

>  <STRUCTURE_ChemicalName_IUPAC>
ethenyl carbamate

>  <STRUCTURE_SMILES>
NC(=O)OC=C

>  <STRUCTURE_Parent_SMILES>
NC(=O)OC=C

>  <STRUCTURE_InChI>
InChI=1/C3H5NO2/c1-2-6-3(4)5/h2H,1H2,(H2,4,5)/f/h4H2

>  <STRUCTURE_InChIKey>
LVLANIHJQRZTPY-LGEMBHMGCE

>  <StudyType>
Carcinogenicity

>  <Endpoint>
TD50; Tumor Target Sites

>  <Species>
mouse

>  <TD50_Mouse_mg>
0.124

>  <TD50_Mouse_mmol>
0.00142

>  <ActivityScore_CPDBAS_Mouse>
60

>  <TD50_Mouse_Note>
positive test results only by intraperitoneal or intravenous injection; TD50 is harmonic mean of more than one positive test

>  <TargetSites_Mouse_Male>
liver; vascular system

>  <TargetSites_Mouse_Female>
liver; vascular system

>  <ActivityOutcome_CPDBAS_Mouse>
active

>  <ActivityOutcome_CPDBAS_SingleCellCall>
active

>  <ActivityOutcome_CPDBAS_MultiCellCall>
active

>  <ActivityOutcome_CPDBAS_MultiCellCall_Details>
multisite active; multisex active

>  <ChemicalPage_URL>
http://potency.berkeley.edu/chempages/VINYL%20CARBAMATE.html

$$$$



  3  2  0  0  0  0  0  0  0  0999 V2000
    2.3030   -0.6656    0.0000 C   0  0  0  0  0  0  0  0  0  0  0  0
    1.1515    0.0000    0.0000 C   0  0  0  0  0  0  0  0  0  0  0  0
    0.0000   -0.6656    0.0000 Cl  0  0  0  0  0  0  0  0  0  0  0  0
  1  2  2  0  0  0  0
  2  3  1  0  0  0  0
M  END
>  <DSSTox_RID>
21434

>  <DSSTox_CID>
1434

>  <DSSTox_Generic_SID>
21434

>  <DSSTox_FileID>
1500_CPDBAS_v5d

>  <STRUCTURE_Formula>
C2H3Cl

>  <STRUCTURE_MolecularWeight>
62.4982

>  <STRUCTURE_ChemicalType>
defined organic

>  <STRUCTURE_TestedForm_DefinedOrganic>
parent

>  <STRUCTURE_Shown>
tested chemical

>  <TestSubstance_ChemicalName>
Vinyl chloride

>  <TestSubstance_CASRN>
75-01-4

>  <TestSubstance_Description>
single chemical compound

>  <STRUCTURE_ChemicalName_IUPAC>
chloroethene

>  <STRUCTURE_SMILES>
C=CCl

>  <STRUCTURE_Parent_SMILES>
C=CCl

>  <STRUCTURE_InChI>
InChI=1/C2H3Cl/c1-2-3/h2H,1H2

>  <STRUCTURE_InChIKey>
BZHJMEDXRYGGRV-UHFFFAOYAW

>  <StudyType>
Carcinogenicity

>  <Endpoint>
TD50; Tumor Target Sites

>  <Species>
rat; mouse; hamster

>  <ActivityOutcome_CPDBAS_Mutagenicity>
active

>  <TD50_Rat_mg>
6.11

>  <TD50_Rat_mmol>
0.0978

>  <ActivityScore_CPDBAS_Rat>
36

>  <TD50_Rat_Note>
TD50 is harmonic mean of more than one positive test; greater than ten-fold variation among TD50 values for positive results

>  <TargetSites_Rat_Male>
ear Zymbals gland; kidney; liver; lung; nasal cavity; nervous system; skin; testes; vascular system

>  <TargetSites_Rat_Female>
ear Zymbals gland; kidney; liver; mammary gland; nasal cavity; nervous system; vascular system

>  <ActivityOutcome_CPDBAS_Rat>
active

>  <TD50_Mouse_mg>
21.8

>  <TD50_Mouse_mmol>
0.349

>  <ActivityScore_CPDBAS_Mouse>
33

>  <TD50_Mouse_Note>
TD50 is harmonic mean of more than one positive test

>  <TargetSites_Mouse_Male>
lung; vascular system

>  <TargetSites_Mouse_Female>
lung; mammary gland; vascular system

>  <ActivityOutcome_CPDBAS_Mouse>
active

>  <TD50_Hamster_mg>
39.4

>  <TD50_Hamster_mmol>
0.63

>  <ActivityScore_CPDBAS_Hamster>
31

>  <TD50_Hamster_Note>
TD50 is harmonic mean of more than one positive test

>  <TargetSites_Hamster_Male>
ear Zymbals gland; stomach; vascular system

>  <TargetSites_Hamster_Female>
mammary gland; skin; stomach; vascular system

>  <ActivityOutcome_CPDBAS_Hamster>
active

>  <ActivityOutcome_CPDBAS_SingleCellCall>
active

>  <ActivityOutcome_CPDBAS_MultiCellCall>
active

>  <ActivityOutcome_CPDBAS_MultiCellCall_Details>
multisite active; multisex active; multispecies active

>  <Note_CPDBAS>
TD50_Rat modified v3a; TargetSites_Rat modified v3a; TargetSites_Mouse modified v3a; TargetSites_Hamster modified v3a

>  <ChemicalPage_URL>
http://potency.berkeley.edu/chempages/VINYL%20CHLORIDE.html

$$$$



  3  2  0  0  0  0  0  0  0  0999 V2000
    0.0000   -1.1533    0.0000 C   0  0  0  0  0  0  0  0  0  0  0  0
    0.6613    0.0000    0.0000 C   0  0  0  0  0  0  0  0  0  0  0  0
    1.9919    0.0000    0.0000 F   0  0  0  0  0  0  0  0  0  0  0  0
  1  2  2  0  0  0  0
  2  3  1  0  0  0  0
M  END
>  <DSSTox_RID>
21435

>  <DSSTox_CID>
1435

>  <DSSTox_Generic_SID>
21435

>  <DSSTox_FileID>
1501_CPDBAS_v5d

>  <STRUCTURE_Formula>
C2H3F

>  <STRUCTURE_MolecularWeight>
46.0436

>  <STRUCTURE_ChemicalType>
defined organic

>  <STRUCTURE_TestedForm_DefinedOrganic>
parent

>  <STRUCTURE_Shown>
tested chemical

>  <TestSubstance_ChemicalName>
Vinyl fluoride

>  <TestSubstance_CASRN>
75-02-5

>  <TestSubstance_Description>
single chemical compound

>  <STRUCTURE_ChemicalName_IUPAC>
fluoroethene

>  <STRUCTURE_SMILES>
C=CF

>  <STRUCTURE_Parent_SMILES>
C=CF

>  <STRUCTURE_InChI>
InChI=1/C2H3F/c1-2-3/h2H,1H2

>  <STRUCTURE_InChIKey>
XUCNUKMRBVNAPB-UHFFFAOYAT

>  <StudyType>
Carcinogenicity

>  <Endpoint>
TD50; Tumor Target Sites

>  <Species>
rat; mouse

>  <ActivityOutcome_CPDBAS_Mutagenicity>
active

>  <TD50_Rat_mg>
20

>  <TD50_Rat_mmol>
0.434

>  <ActivityScore_CPDBAS_Rat>
29

>  <TD50_Rat_Note>
TD50 is harmonic mean of more than one positive test

>  <TargetSites_Rat_Male>
ear Zymbals gland; vascular system

>  <TargetSites_Rat_Female>
ear Zymbals gland; liver; vascular system

>  <ActivityOutcome_CPDBAS_Rat>
active

>  <TD50_Mouse_mg>
8.11

>  <TD50_Mouse_mmol>
0.176

>  <ActivityScore_CPDBAS_Mouse>
37

>  <TD50_Mouse_Note>
TD50 is harmonic mean of more than one positive test

>  <TargetSites_Mouse_Male>
harderian gland; liver; lung; vascular system

>  <TargetSites_Mouse_Female>
harderian gland; lung; mammary gland; vascular system

>  <ActivityOutcome_CPDBAS_Mouse>
active

>  <ActivityOutcome_CPDBAS_SingleCellCall>
active

>  <ActivityOutcome_CPDBAS_MultiCellCall>
active

>  <ActivityOutcome_CPDBAS_MultiCellCall_Details>
multisite active; multisex active; multispecies active

>  <Note_CPDBAS>
Rat added v2a; Mouse added v2a; TD50_Mouse modified v5a

>  <ChemicalPage_URL>
http://potency.berkeley.edu/chempages/VINYL%20FLUORIDE.html

$$$$



  8  8  0  0  0  0  0  0  0  0999 V2000
    0.0000    0.0000    0.0000 C   0  0  0  0  0  0  0  0  0  0  0  0
    0.6654   -1.1540    0.0000 C   0  0  0  0  0  0  0  0  0  0  0  0
    1.9962   -1.1540    0.0000 C   0  0  3  0  0  0  0  0  0  0  0  0
    2.6569    0.0000    0.0000 C   0  0  0  0  0  0  0  0  0  0  0  0
    3.9877    0.0000    0.0000 C   0  0  0  0  0  0  0  0  0  0  0  0
    4.6531   -1.1540    0.0000 C   0  0  0  0  0  0  0  0  0  0  0  0
    3.9877   -2.3033    0.0000 C   0  0  0  0  0  0  0  0  0  0  0  0
    2.6569   -2.3033    0.0000 C   0  0  0  0  0  0  0  0  0  0  0  0
  1  2  2  0  0  0  0
  2  3  1  0  0  0  0
  3  4  1  0  0  0  0
  3  8  1  0  0  0  0
  4  5  1  0  0  0  0
  5  6  1  0  0  0  0
  6  7  2  0  0  0  0
  7  8  1  0  0  0  0
M  END
>  <DSSTox_RID>
21437

>  <DSSTox_CID>
1437

>  <DSSTox_Generic_SID>
21437

>  <DSSTox_FileID>
1503_CPDBAS_v5d

>  <STRUCTURE_Formula>
C8H12

>  <STRUCTURE_MolecularWeight>
108.1809

>  <STRUCTURE_ChemicalType>
defined organic

>  <STRUCTURE_TestedForm_DefinedOrganic>
parent

>  <STRUCTURE_Shown>
tested chemical

>  <TestSubstance_ChemicalName>
4-Vinylcyclohexene

>  <TestSubstance_CASRN>
100-40-3

>  <TestSubstance_Description>
single chemical compound

>  <STRUCTURE_ChemicalName_IUPAC>
4-vinylcyclohexene

>  <STRUCTURE_SMILES>
C=CC1CCC=CC1

>  <STRUCTURE_Parent_SMILES>
C=CC1CCC=CC1

>  <STRUCTURE_InChI>
InChI=1/C8H12/c1-2-8-6-4-3-5-7-8/h2-4,8H,1,5-7H2

>  <STRUCTURE_InChIKey>
BBDKZWKEPDTENS-UHFFFAOYAZ

>  <StudyType>
Carcinogenicity

>  <Endpoint>
TD50; Tumor Target Sites

>  <Species>
rat; mouse

>  <ActivityOutcome_CPDBAS_Mutagenicity>
inactive

>  <ActivityScore_CPDBAS_Rat>
0

>  <TD50_Rat_Note>
only experiment is NCI NTP bioassay inadequate

>  <TargetSites_Rat_Male>
NTP bioassay inadequate

>  <TargetSites_Rat_Female>
NTP bioassay inadequate

>  <ActivityOutcome_CPDBAS_Rat>
unspecified

>  <TD50_Mouse_mg>
106

>  <TD50_Mouse_mmol>
0.98

>  <ActivityScore_CPDBAS_Mouse>
28

>  <TargetSites_Mouse_Male>
NTP bioassay inadequate

>  <TargetSites_Mouse_Female>
ovary

>  <ActivityOutcome_CPDBAS_Mouse>
active

>  <ActivityOutcome_CPDBAS_SingleCellCall>
active

>  <Note_CPDBAS>
ActivityOutcome_CPDBAS_Rat modified v5d

>  <NTP_TechnicalReport>
TR 303

>  <ChemicalPage_URL>
http://potency.berkeley.edu/chempages/4-VINYLCYCLOHEXENE.html

$$$$



  4  3  0  0  0  0  0  0  0  0999 V2000
    1.9950    0.0000    0.0000 C   0  0  0  0  0  0  0  0  0  0  0  0
    1.3292   -1.1518    0.0000 C   0  0  0  0  0  0  0  0  0  0  0  0
    1.9950   -2.3037    0.0000 Cl  0  0  0  0  0  0  0  0  0  0  0  0
    0.0000   -1.1518    0.0000 Cl  0  0  0  0  0  0  0  0  0  0  0  0
  1  2  2  0  0  0  0
  2  3  1  0  0  0  0
  2  4  1  0  0  0  0
M  END
>  <DSSTox_RID>
21438

>  <DSSTox_CID>
1438

>  <DSSTox_Generic_SID>
21438

>  <DSSTox_FileID>
1504_CPDBAS_v5d

>  <STRUCTURE_Formula>
C2H2Cl2

>  <STRUCTURE_MolecularWeight>
96.9433

>  <STRUCTURE_ChemicalType>
defined organic

>  <STRUCTURE_TestedForm_DefinedOrganic>
parent

>  <STRUCTURE_Shown>
tested chemical

>  <TestSubstance_ChemicalName>
Vinylidene chloride

>  <TestSubstance_CASRN>
75-35-4

>  <TestSubstance_Description>
single chemical compound

>  <STRUCTURE_ChemicalName_IUPAC>
1,1-dichloroethene

>  <STRUCTURE_SMILES>
C=C(Cl)Cl

>  <STRUCTURE_Parent_SMILES>
C=C(Cl)Cl

>  <STRUCTURE_InChI>
InChI=1/C2H2Cl2/c1-2(3)4/h1H2

>  <STRUCTURE_InChIKey>
LGXVIGDEPROXKC-UHFFFAOYAG

>  <StudyType>
Carcinogenicity

>  <Endpoint>
TD50; Tumor Target Sites

>  <Species>
rat; mouse

>  <ActivityOutcome_CPDBAS_Mutagenicity>
active

>  <ActivityScore_CPDBAS_Rat>
0

>  <TD50_Rat_Note>
no positive results

>  <TargetSites_Rat_Male>
no positive results

>  <TargetSites_Rat_Female>
no positive results

>  <ActivityOutcome_CPDBAS_Rat>
inactive

>  <TD50_Mouse_mg>
34.6

>  <TD50_Mouse_mmol>
0.357

>  <ActivityScore_CPDBAS_Mouse>
33

>  <TD50_Mouse_Note>
TD50 is harmonic mean of more than one positive test

>  <TargetSites_Mouse_Male>
kidney; lung

>  <TargetSites_Mouse_Female>
lung; mammary gland; vascular system

>  <ActivityOutcome_CPDBAS_Mouse>
active

>  <ActivityOutcome_CPDBAS_SingleCellCall>
active

>  <ActivityOutcome_CPDBAS_MultiCellCall>
active

>  <ActivityOutcome_CPDBAS_MultiCellCall_Details>
multisite active; multisex active

>  <Note_CPDBAS>
TD50_Mouse modified v2a

>  <NTP_TechnicalReport>
TR 228; final call in CPDB differs due to additional data

>  <ChemicalPage_URL>
http://potency.berkeley.edu/chempages/VINYLIDENE%20CHLORIDE.html

$$$$



  4  3  0  0  0  0  0  0  0  0999 V2000
    0.0000   -1.1591    0.0000 C   0  0  0  0  0  0  0  0  0  0  0  0
    1.3277   -1.1591    0.0000 C   0  0  0  0  0  0  0  0  0  0  0  0
    1.9903   -2.3090    0.0000 F   0  0  0  0  0  0  0  0  0  0  0  0
    1.9903    0.0000    0.0000 F   0  0  0  0  0  0  0  0  0  0  0  0
  1  2  2  0  0  0  0
  2  3  1  0  0  0  0
  2  4  1  0  0  0  0
M  END
>  <DSSTox_RID>
21439

>  <DSSTox_CID>
1439

>  <DSSTox_Generic_SID>
21439

>  <DSSTox_FileID>
1505_CPDBAS_v5d

>  <STRUCTURE_Formula>
C2H2F2

>  <STRUCTURE_MolecularWeight>
64.0341

>  <STRUCTURE_ChemicalType>
defined organic

>  <STRUCTURE_TestedForm_DefinedOrganic>
parent

>  <STRUCTURE_Shown>
tested chemical

>  <TestSubstance_ChemicalName>
Vinylidene fluoride

>  <TestSubstance_CASRN>
75-38-7

>  <TestSubstance_Description>
single chemical compound

>  <STRUCTURE_ChemicalName_IUPAC>
1,1-difluoroethene

>  <STRUCTURE_SMILES>
C=C(F)F

>  <STRUCTURE_Parent_SMILES>
C=C(F)F

>  <STRUCTURE_InChI>
InChI=1/C2H2F2/c1-2(3)4/h1H2

>  <STRUCTURE_InChIKey>
BQCIDUSAKPWEOX-UHFFFAOYAV

>  <StudyType>
Carcinogenicity

>  <Endpoint>
TD50; Tumor Target Sites

>  <Species>
rat

>  <ActivityOutcome_CPDBAS_Mutagenicity>
active

>  <ActivityScore_CPDBAS_Rat>
0

>  <TD50_Rat_Note>
no positive results

>  <TargetSites_Rat_Male>
no positive results

>  <TargetSites_Rat_Female>
no positive results

>  <ActivityOutcome_CPDBAS_Rat>
inactive

>  <ActivityOutcome_CPDBAS_SingleCellCall>
inactive

>  <ActivityOutcome_CPDBAS_MultiCellCall>
inactive

>  <ActivityOutcome_CPDBAS_MultiCellCall_Details>
multisex inactive

>  <Note_CPDBAS>
Rat added v2a

>  <ChemicalPage_URL>
http://potency.berkeley.edu/chempages/VINYLIDENE%20FLUORIDE.html

$$$$



  8  8  0  0  0  0  0  0  0  0999 V2000
    2.1180   -0.5316    0.0000 C   0  0  0  0  0  0  0  0  0  0  0  0
    3.3374    0.0000    0.0000 C   0  0  0  0  0  0  0  0  0  0  0  0
    2.2615   -1.8607    0.0000 N   0  0  0  0  0  0  0  0  0  0  0  0
    4.2192   -0.9789    0.0000 C   0  0  0  0  0  0  0  0  0  0  0  0
    3.5610   -2.1349    0.0000 C   0  0  0  0  0  0  0  0  0  0  0  0
    4.1053   -3.3543    0.0000 O   0  0  0  0  0  0  0  0  0  0  0  0
    1.2658   -2.7467    0.0000 C   0  0  0  0  0  0  0  0  0  0  0  0
    0.0000   -2.3416    0.0000 C   0  0  0  0  0  0  0  0  0  0  0  0
  1  2  1  0  0  0  0
  1  3  1  0  0  0  0
  2  4  1  0  0  0  0
  3  5  1  0  0  0  0
  3  7  1  0  0  0  0
  4  5  1  0  0  0  0
  5  6  2  0  0  0  0
  7  8  2  0  0  0  0
M  END
>  <DSSTox_RID>
21440

>  <DSSTox_CID>
1440

>  <DSSTox_Generic_SID>
21440

>  <DSSTox_FileID>
1506_CPDBAS_v5d

>  <STRUCTURE_Formula>
C6H9NO

>  <STRUCTURE_MolecularWeight>
111.1418

>  <STRUCTURE_ChemicalType>
defined organic

>  <STRUCTURE_TestedForm_DefinedOrganic>
parent

>  <STRUCTURE_Shown>
tested chemical

>  <TestSubstance_ChemicalName>
N-Vinylpyrrolidone-2

>  <TestSubstance_CASRN>
88-12-0

>  <TestSubstance_Description>
single chemical compound

>  <STRUCTURE_ChemicalName_IUPAC>
1-vinylpyrrolidin-2-one

>  <STRUCTURE_SMILES>
O=C1N(C=C)CCC1

>  <STRUCTURE_Parent_SMILES>
O=C1N(C=C)CCC1

>  <STRUCTURE_InChI>
InChI=1/C6H9NO/c1-2-7-5-3-4-6(7)8/h2H,1,3-5H2

>  <STRUCTURE_InChIKey>
WHNWPMSKXPGLAX-UHFFFAOYAI

>  <StudyType>
Carcinogenicity

>  <Endpoint>
TD50; Tumor Target Sites

>  <Species>
rat

>  <ActivityOutcome_CPDBAS_Mutagenicity>
inactive

>  <TD50_Rat_mg>
12

>  <TD50_Rat_mmol>
0.108

>  <ActivityScore_CPDBAS_Rat>
36

>  <TD50_Rat_Note>
TD50 is harmonic mean of more than one positive test

>  <TargetSites_Rat_Male>
liver; nasal cavity; oral cavity

>  <TargetSites_Rat_Female>
liver; nasal cavity; oral cavity

>  <ActivityOutcome_CPDBAS_Rat>
active

>  <ActivityOutcome_CPDBAS_SingleCellCall>
active

>  <ActivityOutcome_CPDBAS_MultiCellCall>
active

>  <ActivityOutcome_CPDBAS_MultiCellCall_Details>
multisite active; multisex active

>  <Note_CPDBAS>
Rat added v3a; chemical added v3a

>  <ChemicalPage_URL>
http://potency.berkeley.edu/chempages/N-VINYLPYRROLIDONE-2.html

$$$$



 18 18  0  0  1  0  0  0  0  0999 V2000
    3.4662   -3.1430    0.0000 C   0  0  2  0  0  0  0  0  0  0  0  0
    2.3108   -3.7975    0.0000 C   0  0  1  0  0  0  0  0  0  0  0  0
    1.1554   -3.1430    0.0000 C   0  0  2  0  0  0  0  0  0  0  0  0
    1.1554   -1.8099    0.0000 C   0  0  1  0  0  0  0  0  0  0  0  0
    2.3108   -1.1393    0.0000 C   0  0  1  0  0  0  0  0  0  0  0  0
    3.4662   -1.8099    0.0000 C   0  0  0  0  0  0  0  0  0  0  0  0
    2.3108   -5.1307    0.0000 O   0  0  0  0  0  0  0  0  0  0  0  0
    0.0000   -3.7975    0.0000 O   0  0  0  0  0  0  0  0  0  0  0  0
    0.0000   -1.1393    0.0000 O   0  0  0  0  0  0  0  0  0  0  0  0
    1.6321    0.0000    0.0000 O   0  0  0  0  0  0  0  0  0  0  0  0
    2.9653    0.0000    0.0000 C   0  0  0  0  0  0  0  0  0  0  0  0
    4.3146    0.0000    0.0000 O   0  0  0  0  0  0  0  0  0  0  0  0
    4.6136   -3.7975    0.0000 N   0  0  0  0  0  0  0  0  0  0  0  0
    5.7690   -3.1430    0.0000 C   0  0  0  0  0  0  0  0  0  0  0  0
    5.7690   -1.8099    0.0000 C   0  0  0  0  0  0  0  0  0  0  0  0
    6.9082   -1.1393    0.0000 O   0  0  0  0  0  0  0  0  0  0  0  0
    6.9082   -3.7975    0.0000 C   0  0  0  0  0  0  0  0  0  0  0  0
    8.0798   -3.1430    0.0000 O   0  0  0  0  0  0  0  0  0  0  0  0
  1 13  1  6  0  0  0
  1  2  1  0  0  0  0
  1  6  1  0  0  0  0
  2  3  1  0  0  0  0
  2  7  1  6  0  0  0
  3  4  1  0  0  0  0
  3  8  1  1  0  0  0
  4  5  1  0  0  0  0
  4  9  1  6  0  0  0
  5 10  1  6  0  0  0
  5 11  1  1  0  0  0
  5  6  1  0  0  0  0
 11 12  1  0  0  0  0
 13 14  1  0  0  0  0
 14 15  1  0  0  0  0
 14 17  1  0  0  0  0
 15 16  1  0  0  0  0
 17 18  1  0  0  0  0
M  END
>  <DSSTox_RID>
21442

>  <DSSTox_CID>
1442

>  <DSSTox_Generic_SID>
21442

>  <DSSTox_FileID>
1508_CPDBAS_v5d

>  <STRUCTURE_Formula>
C10H21NO7

>  <STRUCTURE_MolecularWeight>
267.2762

>  <STRUCTURE_ChemicalType>
defined organic

>  <STRUCTURE_TestedForm_DefinedOrganic>
parent

>  <STRUCTURE_Shown>
tested chemical

>  <TestSubstance_ChemicalName>
Voglibose

>  <TestSubstance_CASRN>
83480-29-9

>  <TestSubstance_Description>
single chemical compound

>  <ChemicalNote>
stereochem

>  <STRUCTURE_ChemicalName_IUPAC>
(1S,2S,3R,4S,5S)-5-{[2-hydroxy-1-(hydroxymethyl)ethyl]amino}-1-(hydroxymethyl)cyclohexane-1,2,3,4-tetrol

>  <STRUCTURE_SMILES>
O[C@H]1[C@@H](NC(CO)CO)C[C@](O)(CO)[C@@H](O)[C@@H]1O

>  <STRUCTURE_Parent_SMILES>
O[C@H]1[C@@H](NC(CO)CO)C[C@](O)(CO)[C@@H](O)[C@@H]1O

>  <STRUCTURE_InChI>
InChI=1/C10H21NO7/c12-2-5(3-13)11-6-1-10(18,4-14)9(17)8(16)7(6)15/h5-9,11-18H,1-4H2/t6-,7-,8+,9-,10-/m0/s1

>  <STRUCTURE_InChIKey>
FZNCGRZWXLXZSZ-CIQUZCHMBI

>  <StudyType>
Carcinogenicity

>  <Endpoint>
TD50; Tumor Target Sites

>  <Species>
rat; mouse

>  <ActivityScore_CPDBAS_Rat>
0

>  <TD50_Rat_Note>
no positive results

>  <TargetSites_Rat_Male>
no positive results

>  <TargetSites_Rat_Female>
no positive results

>  <ActivityOutcome_CPDBAS_Rat>
inactive

>  <ActivityScore_CPDBAS_Mouse>
0

>  <TD50_Mouse_Note>
no positive results

>  <TargetSites_Mouse_Male>
no positive results

>  <TargetSites_Mouse_Female>
no positive results

>  <ActivityOutcome_CPDBAS_Mouse>
inactive

>  <ActivityOutcome_CPDBAS_SingleCellCall>
inactive

>  <ActivityOutcome_CPDBAS_MultiCellCall>
inactive

>  <ActivityOutcome_CPDBAS_MultiCellCall_Details>
multisex inactive; multispecies inactive

>  <Note_CPDBAS>
Rat added v2a; Mouse added v2a

>  <ChemicalPage_URL>
http://potency.berkeley.edu/chempages/VOGLIBOSE.html

$$$$



 20 21  0  0  0  0  0  0  0  0999 V2000
    4.6105    0.0000    0.0000 O   0  0  0  0  0  0  0  0  0  0  0  0
    3.4579   -0.6586    0.0000 C   0  0  0  0  0  0  0  0  0  0  0  0
    3.4579   -1.9886    0.0000 C   0  0  0  0  0  0  0  0  0  0  0  0
    2.3052   -2.6599    0.0000 C   0  0  0  0  0  0  0  0  0  0  0  0
    1.1526   -1.9886    0.0000 C   0  0  0  0  0  0  0  0  0  0  0  0
    1.1526   -0.6586    0.0000 C   0  0  0  0  0  0  0  0  0  0  0  0
    2.3052    0.0000    0.0000 C   0  0  0  0  0  0  0  0  0  0  0  0
    0.0000   -2.6599    0.0000 C   0  0  0  0  0  0  0  0  0  0  0  0
    4.6105   -2.6599    0.0000 N   0  0  0  0  0  0  0  0  0  0  0  0
    5.7631   -1.9886    0.0000 N   0  0  0  0  0  0  0  0  0  0  0  0
    6.9031   -2.6599    0.0000 C   0  0  0  0  0  0  0  0  0  0  0  0
    8.0557   -1.9886    0.0000 C   0  0  0  0  0  0  0  0  0  0  0  0
    9.2083   -2.6599    0.0000 C   0  0  0  0  0  0  0  0  0  0  0  0
    9.2083   -3.9898    0.0000 C   0  0  0  0  0  0  0  0  0  0  0  0
    8.0557   -4.6485    0.0000 C   0  0  0  0  0  0  0  0  0  0  0  0
    6.9031   -3.9898    0.0000 C   0  0  0  0  0  0  0  0  0  0  0  0
   10.3609   -4.6485    0.0000 N   0  0  0  0  0  0  0  0  0  0  0  0
   11.5136   -3.9898    0.0000 C   0  0  0  0  0  0  0  0  0  0  0  0
   11.5136   -2.6599    0.0000 O   0  0  0  0  0  0  0  0  0  0  0  0
   12.6662   -4.6485    0.0000 C   0  0  0  0  0  0  0  0  0  0  0  0
  1  2  1  0  0  0  0
  2  3  2  0  0  0  0
  2  7  1  0  0  0  0
  3  4  1  0  0  0  0
  3  9  1  0  0  0  0
  4  5  2  0  0  0  0
  5  6  1  0  0  0  0
  5  8  1  0  0  0  0
  6  7  2  0  0  0  0
  9 10  2  0  0  0  0
 10 11  1  0  0  0  0
 11 12  2  0  0  0  0
 11 16  1  0  0  0  0
 12 13  1  0  0  0  0
 13 14  2  0  0  0  0
 14 15  1  0  0  0  0
 14 17  1  0  0  0  0
 15 16  2  0  0  0  0
 17 18  1  0  0  0  0
 18 19  2  0  0  0  0
 18 20  1  0  0  0  0
M  END
>  <DSSTox_RID>
21450

>  <DSSTox_CID>
1450

>  <DSSTox_Generic_SID>
21450

>  <DSSTox_FileID>
1517_CPDBAS_v5d

>  <STRUCTURE_Formula>
C15H15N3O2

>  <STRUCTURE_MolecularWeight>
269.2985

>  <STRUCTURE_ChemicalType>
defined organic

>  <STRUCTURE_TestedForm_DefinedOrganic>
parent

>  <STRUCTURE_Shown>
tested chemical

>  <TestSubstance_ChemicalName>
C.I. disperse yellow 3

>  <TestSubstance_CASRN>
2832-40-8

>  <TestSubstance_Description>
single chemical compound

>  <ChemicalNote>
C.I. 11855

>  <STRUCTURE_ChemicalName_IUPAC>
N-{4-[(E)-(2-hydroxy-5-methylphenyl)diazenyl]phenyl}acetamide

>  <STRUCTURE_SMILES>
OC1=C(C=C(C=C1)C)/N=N/C2=CC=C(C=C2)NC(=O)C

>  <STRUCTURE_Parent_SMILES>
OC1=C(C=C(C=C1)C)/N=N/C2=CC=C(C=C2)NC(=O)C

>  <STRUCTURE_InChI>
InChI=1/C15H15N3O2/c1-10-3-8-15(20)14(9-10)18-17-13-6-4-12(5-7-13)16-11(2)19/h3-9,20H,1-2H3,(H,16,19)/b18-17+/f/h16H

>  <STRUCTURE_InChIKey>
PXOZAFXVEWKXED-GZOCKEIUDB

>  <StudyType>
Carcinogenicity

>  <Endpoint>
TD50; Tumor Target Sites

>  <Species>
rat; mouse

>  <ActivityOutcome_CPDBAS_Mutagenicity>
active

>  <TD50_Rat_mg>
380

>  <TD50_Rat_mmol>
1.41

>  <ActivityScore_CPDBAS_Rat>
24

>  <TargetSites_Rat_Male>
liver

>  <TargetSites_Rat_Female>
no positive results

>  <ActivityOutcome_CPDBAS_Rat>
active

>  <TD50_Mouse_mg>
1020

>  <TD50_Mouse_mmol>
3.79

>  <ActivityScore_CPDBAS_Mouse>
22

>  <TargetSites_Mouse_Male>
no positive results

>  <TargetSites_Mouse_Female>
liver

>  <ActivityOutcome_CPDBAS_Mouse>
active

>  <ActivityOutcome_CPDBAS_SingleCellCall>
active

>  <ActivityOutcome_CPDBAS_MultiCellCall>
active

>  <ActivityOutcome_CPDBAS_MultiCellCall_Details>
multisex active; multispecies active

>  <NTP_TechnicalReport>
TR 222

>  <ChemicalPage_URL>
http://potency.berkeley.edu/chempages/C.I.%20DISPERSE%20YELLOW%203.html

$$$$



 44 47  0  0  0  0  0  0  0  0999 V2000
   20.7193   -4.6411    0.0000 C   0  0  0  0  0  0  0  0  0  0  0  0
   20.7193   -5.9672    0.0000 C   0  0  0  0  0  0  0  0  0  0  0  0
   19.5590   -6.6509    0.0000 C   0  0  0  0  0  0  0  0  0  0  0  0
   18.4194   -5.9672    0.0000 C   0  0  0  0  0  0  0  0  0  0  0  0
   17.2592   -6.6509    0.0000 N   0  0  0  0  0  0  0  0  0  0  0  0
   17.2592   -7.9769    0.0000 C   0  0  0  0  0  0  0  0  0  0  0  0
   18.4194   -8.6399    0.0000 O   0  0  0  0  0  0  0  0  0  0  0  0
   16.1196   -8.6399    0.0000 C   0  0  3  0  0  0  0  0  0  0  0  0
   14.9593   -7.9769    0.0000 N   0  0  0  0  0  0  0  0  0  0  0  0
   13.8198   -8.6399    0.0000 N   0  0  0  0  0  0  0  0  0  0  0  0
   12.6595   -7.9769    0.0000 C   0  0  0  0  0  0  0  0  0  0  0  0
   11.5199   -8.6399    0.0000 C   0  0  0  0  0  0  0  0  0  0  0  0
   11.5199   -9.9660    0.0000 Cl  0  0  0  0  0  0  0  0  0  0  0  0
   10.3596   -7.9769    0.0000 C   0  0  0  0  0  0  0  0  0  0  0  0
   10.3596   -6.6509    0.0000 C   0  0  0  0  0  0  0  0  0  0  0  0
    9.1994   -5.9672    0.0000 C   0  0  0  0  0  0  0  0  0  0  0  0
    8.0598   -6.6509    0.0000 C   0  0  0  0  0  0  0  0  0  0  0  0
    6.8995   -5.9672    0.0000 C   0  0  0  0  0  0  0  0  0  0  0  0
    5.7600   -6.6509    0.0000 Cl  0  0  0  0  0  0  0  0  0  0  0  0
    6.8995   -4.6411    0.0000 C   0  0  0  0  0  0  0  0  0  0  0  0
    5.7600   -3.9781    0.0000 N   0  0  0  0  0  0  0  0  0  0  0  0
    5.7600   -2.6521    0.0000 N   0  0  0  0  0  0  0  0  0  0  0  0
    4.5997   -1.9891    0.0000 C   0  0  3  0  0  0  0  0  0  0  0  0
    3.4601   -2.6521    0.0000 C   0  0  0  0  0  0  0  0  0  0  0  0
    2.2998   -1.9891    0.0000 O   0  0  0  0  0  0  0  0  0  0  0  0
    3.4601   -3.9781    0.0000 N   0  0  0  0  0  0  0  0  0  0  0  0
    2.2998   -4.6411    0.0000 C   0  0  0  0  0  0  0  0  0  0  0  0
    2.2998   -5.9672    0.0000 C   0  0  0  0  0  0  0  0  0  0  0  0
    1.1603   -6.6509    0.0000 C   0  0  0  0  0  0  0  0  0  0  0  0
    0.0000   -5.9672    0.0000 C   0  0  0  0  0  0  0  0  0  0  0  0
    1.1603   -3.9781    0.0000 C   0  0  0  0  0  0  0  0  0  0  0  0
    0.0000   -4.6411    0.0000 C   0  0  0  0  0  0  0  0  0  0  0  0
    4.5997   -0.6630    0.0000 C   0  0  0  0  0  0  0  0  0  0  0  0
    5.7600    0.0000    0.0000 O   0  0  0  0  0  0  0  0  0  0  0  0
    3.4601    0.0000    0.0000 C   0  0  0  0  0  0  0  0  0  0  0  0
    9.1994   -4.6411    0.0000 C   0  0  0  0  0  0  0  0  0  0  0  0
    8.0598   -3.9781    0.0000 C   0  0  0  0  0  0  0  0  0  0  0  0
   12.6595   -6.6509    0.0000 C   0  0  0  0  0  0  0  0  0  0  0  0
   11.5199   -5.9672    0.0000 C   0  0  0  0  0  0  0  0  0  0  0  0
   16.1196   -9.9660    0.0000 C   0  0  0  0  0  0  0  0  0  0  0  0
   17.2592  -10.6290    0.0000 O   0  0  0  0  0  0  0  0  0  0  0  0
   14.9593  -10.6290    0.0000 C   0  0  0  0  0  0  0  0  0  0  0  0
   19.5590   -3.9781    0.0000 C   0  0  0  0  0  0  0  0  0  0  0  0
   18.4194   -4.6411    0.0000 C   0  0  0  0  0  0  0  0  0  0  0  0
  1  2  2  0  0  0  0
  1 43  1  0  0  0  0
  2  3  1  0  0  0  0
  3  4  2  0  0  0  0
  4  5  1  0  0  0  0
  4 44  1  0  0  0  0
  5  6  1  0  0  0  0
  6  7  2  0  0  0  0
  6  8  1  0  0  0  0
  8  9  1  0  0  0  0
  8 40  1  0  0  0  0
  9 10  2  0  0  0  0
 10 11  1  0  0  0  0
 11 12  2  0  0  0  0
 11 38  1  0  0  0  0
 12 13  1  0  0  0  0
 12 14  1  0  0  0  0
 14 15  2  0  0  0  0
 15 16  1  0  0  0  0
 15 39  1  0  0  0  0
 16 17  2  0  0  0  0
 16 36  1  0  0  0  0
 17 18  1  0  0  0  0
 18 19  1  0  0  0  0
 18 20  2  0  0  0  0
 20 21  1  0  0  0  0
 20 37  1  0  0  0  0
 21 22  2  0  0  0  0
 22 23  1  0  0  0  0
 23 24  1  0  0  0  0
 23 33  1  0  0  0  0
 24 25  2  0  0  0  0
 24 26  1  0  0  0  0
 26 27  1  0  0  0  0
 27 28  2  0  0  0  0
 27 31  1  0  0  0  0
 28 29  1  0  0  0  0
 29 30  2  0  0  0  0
 30 32  1  0  0  0  0
 31 32  2  0  0  0  0
 33 34  2  0  0  0  0
 33 35  1  0  0  0  0
 36 37  2  0  0  0  0
 38 39  2  0  0  0  0
 40 41  2  0  0  0  0
 40 42  1  0  0  0  0
 43 44  2  0  0  0  0
M  END
>  <DSSTox_RID>
21451

>  <DSSTox_CID>
1451

>  <DSSTox_Generic_SID>
21451

>  <DSSTox_FileID>
1518_CPDBAS_v5d

>  <STRUCTURE_Formula>
C32H26Cl2N6O4

>  <STRUCTURE_MolecularWeight>
629.4926

>  <STRUCTURE_ChemicalType>
defined organic

>  <STRUCTURE_TestedForm_DefinedOrganic>
parent

>  <STRUCTURE_Shown>
tested chemical

>  <TestSubstance_ChemicalName>
C.I. pigment yellow 12

>  <TestSubstance_CASRN>
6358-85-6

>  <TestSubstance_Description>
single chemical compound

>  <ChemicalNote>
C.I. 21090, tautomers

>  <STRUCTURE_ChemicalName_IUPAC>
2,2'-[(3,3'-dichlorobiphenyl-4,4'-diyl)di(E)diazene-2,1-diyl]bis(3-oxo-N-phenylbutanamide)

>  <STRUCTURE_SMILES>
C1=CC=C(NC(=O)C(/N=N/C2=C(Cl)C=C(C3=CC(Cl)=C(/N=N/C(C(=O)NC4=CC=CC=C4)C(=O)C)C=C3)C=C2)C(=O)C)C=C1

>  <STRUCTURE_Parent_SMILES>
C1=CC=C(NC(=O)C(/N=N/C2=C(Cl)C=C(C3=CC(Cl)=C(/N=N/C(C(=O)NC4=CC=CC=C4)C(=O)C)C=C3)C=C2)C(=O)C)C=C1

>  <STRUCTURE_InChI>
InChI=1/C32H26Cl2N6O4/c1-19(41)29(31(43)35-23-9-5-3-6-10-23)39-37-27-15-13-21(17-25(27)33)22-14-16-28(26(34)18-22)38-40-30(20(2)42)32(44)36-24-11-7-4-8-12-24/h3-18,29-30H,1-2H3,(H,35,43)(H,36,44)/b39-37+,40-38+/f/h35-36H

>  <STRUCTURE_InChIKey>
GNCOVOVCHIHPHP-GNEFGENADP

>  <StudyType>
Carcinogenicity

>  <Endpoint>
TD50; Tumor Target Sites

>  <Species>
rat; mouse

>  <ActivityOutcome_CPDBAS_Mutagenicity>
inactive

>  <ActivityScore_CPDBAS_Rat>
0

>  <TD50_Rat_Note>
no positive results

>  <TargetSites_Rat_Male>
no positive results

>  <TargetSites_Rat_Female>
no positive results

>  <ActivityOutcome_CPDBAS_Rat>
inactive

>  <ActivityScore_CPDBAS_Mouse>
0

>  <TD50_Mouse_Note>
no positive results

>  <TargetSites_Mouse_Male>
no positive results

>  <TargetSites_Mouse_Female>
no positive results

>  <ActivityOutcome_CPDBAS_Mouse>
inactive

>  <ActivityOutcome_CPDBAS_SingleCellCall>
inactive

>  <ActivityOutcome_CPDBAS_MultiCellCall>
inactive

>  <ActivityOutcome_CPDBAS_MultiCellCall_Details>
multisex inactive; multispecies inactive

>  <NTP_TechnicalReport>
TR 30

>  <ChemicalPage_URL>
http://potency.berkeley.edu/chempages/C.I.%20PIGMENT%20YELLOW%2012.html

$$$$



 48 51  0  0  0  0  0  0  0  0999 V2000
    8.0644   -7.9665    0.0000 Cl  0  0  0  0  0  0  0  0  0  0  0  0
    6.9096   -7.3010    0.0000 C   0  0  0  0  0  0  0  0  0  0  0  0
    5.7547   -7.9665    0.0000 C   0  0  0  0  0  0  0  0  0  0  0  0
    4.5998   -7.3010    0.0000 C   0  0  0  0  0  0  0  0  0  0  0  0
    3.4450   -7.9665    0.0000 Cl  0  0  0  0  0  0  0  0  0  0  0  0
    4.5998   -5.9700    0.0000 C   0  0  0  0  0  0  0  0  0  0  0  0
    3.4450   -5.3045    0.0000 N   0  0  0  0  0  0  0  0  0  0  0  0
    3.4450   -3.9735    0.0000 N   0  0  0  0  0  0  0  0  0  0  0  0
    2.3097   -3.3080    0.0000 C   0  0  3  0  0  0  0  0  0  0  0  0
    2.3097   -1.9770    0.0000 C   0  0  0  0  0  0  0  0  0  0  0  0
    1.1549   -1.3114    0.0000 O   0  0  0  0  0  0  0  0  0  0  0  0
    3.4450   -1.3114    0.0000 N   0  0  0  0  0  0  0  0  0  0  0  0
    4.5998   -1.9770    0.0000 C   0  0  0  0  0  0  0  0  0  0  0  0
    5.7547   -1.3114    0.0000 C   0  0  0  0  0  0  0  0  0  0  0  0
    6.9096   -1.9770    0.0000 C   0  0  0  0  0  0  0  0  0  0  0  0
    6.9096   -3.3080    0.0000 C   0  0  0  0  0  0  0  0  0  0  0  0
    8.0644   -3.9735    0.0000 C   0  0  0  0  0  0  0  0  0  0  0  0
    9.2193   -3.3080    0.0000 C   0  0  0  0  0  0  0  0  0  0  0  0
   10.3545   -3.9735    0.0000 C   0  0  0  0  0  0  0  0  0  0  0  0
   11.5094   -3.3080    0.0000 C   0  0  0  0  0  0  0  0  0  0  0  0
   10.3545   -5.3045    0.0000 C   0  0  0  0  0  0  0  0  0  0  0  0
   11.5094   -5.9700    0.0000 N   0  0  0  0  0  0  0  0  0  0  0  0
   11.5094   -7.3010    0.0000 C   0  0  0  0  0  0  0  0  0  0  0  0
   10.3545   -7.9665    0.0000 O   0  0  0  0  0  0  0  0  0  0  0  0
   12.6643   -7.9665    0.0000 C   0  0  3  0  0  0  0  0  0  0  0  0
   13.8191   -7.3010    0.0000 N   0  0  0  0  0  0  0  0  0  0  0  0
   14.9740   -7.9665    0.0000 N   0  0  0  0  0  0  0  0  0  0  0  0
   16.1288   -7.3010    0.0000 C   0  0  0  0  0  0  0  0  0  0  0  0
   16.1288   -5.9700    0.0000 C   0  0  0  0  0  0  0  0  0  0  0  0
   14.9740   -5.3045    0.0000 Cl  0  0  0  0  0  0  0  0  0  0  0  0
   17.2641   -5.3045    0.0000 C   0  0  0  0  0  0  0  0  0  0  0  0
   18.4189   -5.9700    0.0000 C   0  0  0  0  0  0  0  0  0  0  0  0
   19.5738   -5.3045    0.0000 Cl  0  0  0  0  0  0  0  0  0  0  0  0
   17.2641   -7.9665    0.0000 C   0  0  0  0  0  0  0  0  0  0  0  0
   18.4189   -7.3010    0.0000 C   0  0  0  0  0  0  0  0  0  0  0  0
   12.6643   -9.2976    0.0000 C   0  0  0  0  0  0  0  0  0  0  0  0
   13.8191   -9.9631    0.0000 O   0  0  0  0  0  0  0  0  0  0  0  0
   11.5094   -9.9631    0.0000 C   0  0  0  0  0  0  0  0  0  0  0  0
    8.0644   -5.3045    0.0000 C   0  0  0  0  0  0  0  0  0  0  0  0
    9.2193   -5.9700    0.0000 C   0  0  0  0  0  0  0  0  0  0  0  0
    5.7547    0.0000    0.0000 C   0  0  0  0  0  0  0  0  0  0  0  0
    4.5998   -3.3080    0.0000 C   0  0  0  0  0  0  0  0  0  0  0  0
    5.7547   -3.9735    0.0000 C   0  0  0  0  0  0  0  0  0  0  0  0
    1.1549   -3.9735    0.0000 C   0  0  0  0  0  0  0  0  0  0  0  0
    1.1549   -5.3045    0.0000 O   0  0  0  0  0  0  0  0  0  0  0  0
    0.0000   -3.3080    0.0000 C   0  0  0  0  0  0  0  0  0  0  0  0
    6.9096   -5.9700    0.0000 C   0  0  0  0  0  0  0  0  0  0  0  0
    5.7547   -5.3045    0.0000 C   0  0  0  0  0  0  0  0  0  0  0  0
  1  2  1  0  0  0  0
  2  3  2  0  0  0  0
  2 47  1  0  0  0  0
  3  4  1  0  0  0  0
  4  5  1  0  0  0  0
  4  6  2  0  0  0  0
  6  7  1  0  0  0  0
  6 48  1  0  0  0  0
  7  8  2  0  0  0  0
  8  9  1  0  0  0  0
  9 10  1  0  0  0  0
  9 44  1  0  0  0  0
 10 11  2  0  0  0  0
 10 12  1  0  0  0  0
 12 13  1  0  0  0  0
 13 14  2  0  0  0  0
 13 42  1  0  0  0  0
 14 15  1  0  0  0  0
 14 41  1  0  0  0  0
 15 16  2  0  0  0  0
 16 17  1  0  0  0  0
 16 43  1  0  0  0  0
 17 18  2  0  0  0  0
 17 39  1  0  0  0  0
 18 19  1  0  0  0  0
 19 20  1  0  0  0  0
 19 21  2  0  0  0  0
 21 22  1  0  0  0  0
 21 40  1  0  0  0  0
 22 23  1  0  0  0  0
 23 24  2  0  0  0  0
 23 25  1  0  0  0  0
 25 26  1  0  0  0  0
 25 36  1  0  0  0  0
 26 27  2  0  0  0  0
 27 28  1  0  0  0  0
 28 29  2  0  0  0  0
 28 34  1  0  0  0  0
 29 30  1  0  0  0  0
 29 31  1  0  0  0  0
 31 32  2  0  0  0  0
 32 33  1  0  0  0  0
 32 35  1  0  0  0  0
 34 35  2  0  0  0  0
 36 37  2  0  0  0  0
 36 38  1  0  0  0  0
 39 40  2  0  0  0  0
 42 43  2  0  0  0  0
 44 45  2  0  0  0  0
 44 46  1  0  0  0  0
 47 48  2  0  0  0  0
M  END
>  <DSSTox_RID>
21452

>  <DSSTox_CID>
1452

>  <DSSTox_Generic_SID>
21452

>  <DSSTox_FileID>
1519_CPDBAS_v5d

>  <STRUCTURE_Formula>
C34H28Cl4N6O4

>  <STRUCTURE_MolecularWeight>
726.445

>  <STRUCTURE_ChemicalType>
defined organic

>  <STRUCTURE_TestedForm_DefinedOrganic>
parent

>  <STRUCTURE_Shown>
tested chemical

>  <TestSubstance_ChemicalName>
C.I. pigment yellow 16

>  <TestSubstance_CASRN>
5979-28-2

>  <TestSubstance_Description>
single chemical compound

>  <ChemicalNote>
C.I. 20040

>  <STRUCTURE_ChemicalName_IUPAC>
N,N'-(3,3'-dimethylbiphenyl-4,4'-diyl)bis{2-[(E)-(2,4-dichlorophenyl)diazenyl]-3-oxobutanamide}

>  <STRUCTURE_SMILES>
ClC1=CC(Cl)=C(/N=N/C(C(=O)NC2=C(C=C(C3=CC(C)=C(NC(=O)C(/N=N/C4=C(Cl)C=C(Cl)C=C4)C(=O)C)C=C3)C=C2)C)C(=O)C)C=C1

>  <STRUCTURE_Parent_SMILES>
ClC1=CC(Cl)=C(/N=N/C(C(=O)NC2=C(C=C(C3=CC(C)=C(NC(=O)C(/N=N/C4=C(Cl)C=C(Cl)C=C4)C(=O)C)C=C3)C=C2)C)C(=O)C)C=C1

>  <STRUCTURE_InChI>
InChI=1/C34H28Cl4N6O4/c1-17-13-21(5-9-27(17)39-33(47)31(19(3)45)43-41-29-11-7-23(35)15-25(29)37)22-6-10-28(18(2)14-22)40-34(48)32(20(4)46)44-42-30-12-8-24(36)16-26(30)38/h5-16,31-32H,1-4H3,(H,39,47)(H,40,48)/b43-41+,44-42+/f/h39-40H

>  <STRUCTURE_InChIKey>
JFMYRCRXYIIGBB-RTDNQLMVDN

>  <StudyType>
Carcinogenicity

>  <Endpoint>
TD50; Tumor Target Sites

>  <Species>
rat; mouse

>  <ActivityScore_CPDBAS_Rat>
0

>  <TD50_Rat_Note>
no positive results

>  <TargetSites_Rat_BothSexes>
no positive results

>  <ActivityOutcome_CPDBAS_Rat>
inactive

>  <ActivityScore_CPDBAS_Mouse>
0

>  <TargetSites_Mouse_BothSexes>
no positive results

>  <ActivityOutcome_CPDBAS_Mouse>
inactive

>  <ActivityOutcome_CPDBAS_SingleCellCall>
inactive

>  <ActivityOutcome_CPDBAS_MultiCellCall>
inactive

>  <ActivityOutcome_CPDBAS_MultiCellCall_Details>
multispecies inactive

>  <Note_CPDBAS>
TD50_Rat modified v2a

>  <ChemicalPage_URL>
http://potency.berkeley.edu/chempages/C.I.%20PIGMENT%20YELLOW%2016.html

$$$$



 54 57  0  0  0  0  0  0  0  0999 V2000
   10.3802   -6.0007    0.0000 C   0  0  0  0  0  0  0  0  0  0  0  0
   11.5174   -6.6540    0.0000 C   0  0  0  0  0  0  0  0  0  0  0  0
   12.6788   -6.0007    0.0000 C   0  0  0  0  0  0  0  0  0  0  0  0
   13.8160   -6.6540    0.0000 C   0  0  0  0  0  0  0  0  0  0  0  0
   13.8160   -7.9848    0.0000 C   0  0  0  0  0  0  0  0  0  0  0  0
   12.6788   -8.6622    0.0000 C   0  0  0  0  0  0  0  0  0  0  0  0
   11.5174   -7.9848    0.0000 C   0  0  0  0  0  0  0  0  0  0  0  0
   12.6788   -9.9930    0.0000 Cl  0  0  0  0  0  0  0  0  0  0  0  0
   14.9775   -8.6622    0.0000 N   0  0  0  0  0  0  0  0  0  0  0  0
   16.1389   -7.9848    0.0000 N   0  0  0  0  0  0  0  0  0  0  0  0
   17.2761   -8.6622    0.0000 C   0  0  3  0  0  0  0  0  0  0  0  0
   17.2761   -9.9930    0.0000 C   0  0  0  0  0  0  0  0  0  0  0  0
   16.1389  -10.6463    0.0000 C   0  0  0  0  0  0  0  0  0  0  0  0
   18.4375  -10.6463    0.0000 O   0  0  0  0  0  0  0  0  0  0  0  0
   18.4375   -7.9848    0.0000 C   0  0  0  0  0  0  0  0  0  0  0  0
   19.5989   -8.6622    0.0000 O   0  0  0  0  0  0  0  0  0  0  0  0
   18.4375   -6.6540    0.0000 N   0  0  0  0  0  0  0  0  0  0  0  0
   19.5989   -6.0007    0.0000 C   0  0  0  0  0  0  0  0  0  0  0  0
   19.5989   -4.6699    0.0000 C   0  0  0  0  0  0  0  0  0  0  0  0
   20.7362   -3.9924    0.0000 C   0  0  0  0  0  0  0  0  0  0  0  0
   21.8976   -4.6699    0.0000 C   0  0  0  0  0  0  0  0  0  0  0  0
   21.8976   -6.0007    0.0000 C   0  0  0  0  0  0  0  0  0  0  0  0
   20.7362   -6.6540    0.0000 C   0  0  0  0  0  0  0  0  0  0  0  0
   23.0348   -6.6540    0.0000 O   0  0  0  0  0  0  0  0  0  0  0  0
   24.1962   -6.0007    0.0000 C   0  0  0  0  0  0  0  0  0  0  0  0
   23.0348   -3.9924    0.0000 Cl  0  0  0  0  0  0  0  0  0  0  0  0
   18.4375   -3.9924    0.0000 O   0  0  0  0  0  0  0  0  0  0  0  0
   18.4375   -2.6616    0.0000 C   0  0  0  0  0  0  0  0  0  0  0  0
    9.2188   -6.6540    0.0000 C   0  0  0  0  0  0  0  0  0  0  0  0
    8.0573   -6.0007    0.0000 C   0  0  0  0  0  0  0  0  0  0  0  0
    8.0573   -4.6699    0.0000 C   0  0  0  0  0  0  0  0  0  0  0  0
    9.2188   -3.9924    0.0000 C   0  0  0  0  0  0  0  0  0  0  0  0
   10.3802   -4.6699    0.0000 C   0  0  0  0  0  0  0  0  0  0  0  0
    6.9201   -3.9924    0.0000 N   0  0  0  0  0  0  0  0  0  0  0  0
    6.9201   -2.6616    0.0000 N   0  0  0  0  0  0  0  0  0  0  0  0
    5.7587   -2.0083    0.0000 C   0  0  3  0  0  0  0  0  0  0  0  0
    5.7587   -0.6775    0.0000 C   0  0  0  0  0  0  0  0  0  0  0  0
    6.9201    0.0000    0.0000 C   0  0  0  0  0  0  0  0  0  0  0  0
    4.5973    0.0000    0.0000 O   0  0  0  0  0  0  0  0  0  0  0  0
    4.5973   -2.6616    0.0000 C   0  0  0  0  0  0  0  0  0  0  0  0
    3.4601   -2.0083    0.0000 O   0  0  0  0  0  0  0  0  0  0  0  0
    4.5973   -3.9924    0.0000 N   0  0  0  0  0  0  0  0  0  0  0  0
    3.4601   -4.6699    0.0000 C   0  0  0  0  0  0  0  0  0  0  0  0
    3.4601   -6.0007    0.0000 C   0  0  0  0  0  0  0  0  0  0  0  0
    2.2986   -6.6540    0.0000 C   0  0  0  0  0  0  0  0  0  0  0  0
    1.1614   -6.0007    0.0000 C   0  0  0  0  0  0  0  0  0  0  0  0
    1.1614   -4.6699    0.0000 C   0  0  0  0  0  0  0  0  0  0  0  0
    2.2986   -3.9924    0.0000 C   0  0  0  0  0  0  0  0  0  0  0  0
    2.2986   -2.6616    0.0000 O   0  0  0  0  0  0  0  0  0  0  0  0
    1.1614   -2.0083    0.0000 C   0  0  0  0  0  0  0  0  0  0  0  0
    0.0000   -6.6540    0.0000 Cl  0  0  0  0  0  0  0  0  0  0  0  0
    2.2986   -7.9848    0.0000 O   0  0  0  0  0  0  0  0  0  0  0  0
    1.1614   -8.6622    0.0000 C   0  0  0  0  0  0  0  0  0  0  0  0
    6.9201   -6.6540    0.0000 Cl  0  0  0  0  0  0  0  0  0  0  0  0
  1  2  1  0  0  0  0
  1 29  2  0  0  0  0
  1 33  1  0  0  0  0
  2  3  2  0  0  0  0
  2  7  1  0  0  0  0
  3  4  1  0  0  0  0
  4  5  2  0  0  0  0
  5  6  1  0  0  0  0
  5  9  1  0  0  0  0
  6  7  2  0  0  0  0
  6  8  1  0  0  0  0
  9 10  2  0  0  0  0
 10 11  1  0  0  0  0
 11 12  1  0  0  0  0
 11 15  1  0  0  0  0
 12 13  1  0  0  0  0
 12 14  2  0  0  0  0
 15 16  2  0  0  0  0
 15 17  1  0  0  0  0
 17 18  1  0  0  0  0
 18 19  2  0  0  0  0
 18 23  1  0  0  0  0
 19 20  1  0  0  0  0
 19 27  1  0  0  0  0
 20 21  2  0  0  0  0
 21 22  1  0  0  0  0
 21 26  1  0  0  0  0
 22 23  2  0  0  0  0
 22 24  1  0  0  0  0
 24 25  1  0  0  0  0
 27 28  1  0  0  0  0
 29 30  1  0  0  0  0
 30 31  2  0  0  0  0
 30 54  1  0  0  0  0
 31 32  1  0  0  0  0
 31 34  1  0  0  0  0
 32 33  2  0  0  0  0
 34 35  2  0  0  0  0
 35 36  1  0  0  0  0
 36 37  1  0  0  0  0
 36 40  1  0  0  0  0
 37 38  1  0  0  0  0
 37 39  2  0  0  0  0
 40 41  2  0  0  0  0
 40 42  1  0  0  0  0
 42 43  1  0  0  0  0
 43 44  2  0  0  0  0
 43 48  1  0  0  0  0
 44 45  1  0  0  0  0
 45 46  2  0  0  0  0
 45 52  1  0  0  0  0
 46 47  1  0  0  0  0
 46 51  1  0  0  0  0
 47 48  2  0  0  0  0
 48 49  1  0  0  0  0
 49 50  1  0  0  0  0
 52 53  1  0  0  0  0
M  END
>  <DSSTox_RID>
21453

>  <DSSTox_CID>
1453

>  <DSSTox_Generic_SID>
21453

>  <DSSTox_FileID>
1520_CPDBAS_v5d

>  <STRUCTURE_Formula>
C36H32Cl4N6O8

>  <STRUCTURE_MolecularWeight>
818.4867

>  <STRUCTURE_ChemicalType>
defined organic

>  <STRUCTURE_TestedForm_DefinedOrganic>
parent

>  <STRUCTURE_Shown>
tested chemical

>  <TestSubstance_ChemicalName>
C.I. pigment yellow 83

>  <TestSubstance_CASRN>
5567-15-7

>  <TestSubstance_Description>
single chemical compound

>  <ChemicalNote>
C.I. 21108, tautomers

>  <STRUCTURE_ChemicalName_IUPAC>
2,2'-[(3,3'-dichlorobiphenyl-4,4'-diyl)di(E)diazene-2,1-diyl]bis{N-[4-chloro-2,5-bis(methyloxy)phenyl]-3-oxobutanamide}

>  <STRUCTURE_SMILES>
C1(C2=CC=C(C(=C2)Cl)N=NC(C(C)=O)C(=O)NC3=C(C=C(C(=C3)OC)Cl)OC)=CC(=C(C=C1)N=NC(C(C)=O)C(=O)NC4=CC(=C(C=C4OC)Cl)OC)Cl

>  <STRUCTURE_Parent_SMILES>
C1(C2=CC=C(C(=C2)Cl)N=NC(C(C)=O)C(=O)NC3=C(C=C(C(=C3)OC)Cl)OC)=CC(=C(C=C1)N=NC(C(C)=O)C(=O)NC4=CC(=C(C=C4OC)Cl)OC)Cl

>  <STRUCTURE_InChI>
InChI=1/C36H32Cl4N6O8/c1-17(47)33(35(49)41-27-15-29(51-3)23(39)13-31(27)53-5)45-43-25-9-7-19(11-21(25)37)20-8-10-26(22(38)12-20)44-46-34(18(2)48)36(50)42-28-16-30(52-4)24(40)14-32(28)54-6/h7-16,33-34H,1-6H3,(H,41,49)(H,42,50)/b45-43+,46-44+/f/h41-42H

>  <STRUCTURE_InChIKey>
NKXPXRNUMARIMZ-OACNGTLXDG

>  <StudyType>
Carcinogenicity

>  <Endpoint>
TD50; Tumor Target Sites

>  <Species>
rat; mouse

>  <ActivityScore_CPDBAS_Rat>
0

>  <TD50_Rat_Note>
no positive results

>  <TargetSites_Rat_BothSexes>
no positive results

>  <ActivityOutcome_CPDBAS_Rat>
inactive

>  <ActivityScore_CPDBAS_Mouse>
0

>  <TargetSites_Mouse_BothSexes>
no positive results

>  <ActivityOutcome_CPDBAS_Mouse>
inactive

>  <ActivityOutcome_CPDBAS_SingleCellCall>
inactive

>  <ActivityOutcome_CPDBAS_MultiCellCall>
inactive

>  <ActivityOutcome_CPDBAS_MultiCellCall_Details>
multispecies inactive

>  <Note_CPDBAS>
TD50_Rat modified v2a

>  <ChemicalPage_URL>
http://potency.berkeley.edu/chempages/C.I.%20PIGMENT%20YELLOW%2083.html

$$$$



 26 31  0  0  0  0  0  0  0  0999 V2000
    9.9698   -4.6072    0.0000 C   0  0  0  0  0  0  0  0  0  0  0  0
   10.6401   -3.4580    0.0000 C   0  0  0  0  0  0  0  0  0  0  0  0
    9.9698   -2.2983    0.0000 C   0  0  0  0  0  0  0  0  0  0  0  0
    8.6504   -2.2983    0.0000 C   0  0  0  0  0  0  0  0  0  0  0  0
    7.9801   -1.1491    0.0000 C   0  0  0  0  0  0  0  0  0  0  0  0
    8.6504    0.0000    0.0000 O   0  0  0  0  0  0  0  0  0  0  0  0
    6.6501   -1.1491    0.0000 C   0  0  0  0  0  0  0  0  0  0  0  0
    5.9904    0.0000    0.0000 C   0  0  0  0  0  0  0  0  0  0  0  0
    4.6604    0.0000    0.0000 C   0  0  0  0  0  0  0  0  0  0  0  0
    8.6504   -4.6072    0.0000 C   0  0  0  0  0  0  0  0  0  0  0  0
    7.9801   -3.4580    0.0000 C   0  0  0  0  0  0  0  0  0  0  0  0
    6.6501   -3.4580    0.0000 C   0  0  0  0  0  0  0  0  0  0  0  0
    5.9904   -4.6072    0.0000 C   0  0  0  0  0  0  0  0  0  0  0  0
    4.6604   -4.6072    0.0000 C   0  0  0  0  0  0  0  0  0  0  0  0
    3.9900   -3.4580    0.0000 C   0  0  0  0  0  0  0  0  0  0  0  0
    2.6600   -3.4580    0.0000 C   0  0  0  0  0  0  0  0  0  0  0  0
    1.9897   -4.6072    0.0000 O   0  0  0  0  0  0  0  0  0  0  0  0
    1.9897   -2.2983    0.0000 C   0  0  0  0  0  0  0  0  0  0  0  0
    0.6597   -2.2983    0.0000 C   0  0  0  0  0  0  0  0  0  0  0  0
    0.0000   -1.1491    0.0000 C   0  0  0  0  0  0  0  0  0  0  0  0
    5.9904   -2.2983    0.0000 C   0  0  0  0  0  0  0  0  0  0  0  0
    4.6604   -2.2983    0.0000 C   0  0  0  0  0  0  0  0  0  0  0  0
    3.9900   -1.1491    0.0000 C   0  0  0  0  0  0  0  0  0  0  0  0
    2.6600   -1.1491    0.0000 C   0  0  0  0  0  0  0  0  0  0  0  0
    1.9897    0.0000    0.0000 C   0  0  0  0  0  0  0  0  0  0  0  0
    0.6597    0.0000    0.0000 C   0  0  0  0  0  0  0  0  0  0  0  0
  1  2  2  0  0  0  0
  1 10  1  0  0  0  0
  2  3  1  0  0  0  0
  3  4  2  0  0  0  0
  4  5  1  0  0  0  0
  4 11  1  0  0  0  0
  5  6  2  0  0  0  0
  5  7  1  0  0  0  0
  7  8  2  0  0  0  0
  7 21  1  0  0  0  0
  8  9  1  0  0  0  0
  9 23  2  0  0  0  0
 10 11  2  0  0  0  0
 11 12  1  0  0  0  0
 12 13  2  0  0  0  0
 12 21  1  0  0  0  0
 13 14  1  0  0  0  0
 14 15  2  0  0  0  0
 15 16  1  0  0  0  0
 15 22  1  0  0  0  0
 16 17  2  0  0  0  0
 16 18  1  0  0  0  0
 18 19  2  0  0  0  0
 18 24  1  0  0  0  0
 19 20  1  0  0  0  0
 20 26  2  0  0  0  0
 21 22  2  0  0  0  0
 22 23  1  0  0  0  0
 23 24  1  0  0  0  0
 24 25  2  0  0  0  0
 25 26  1  0  0  0  0
M  END
>  <DSSTox_RID>
21454

>  <DSSTox_CID>
1454

>  <DSSTox_Generic_SID>
21454

>  <DSSTox_FileID>
1521_CPDBAS_v5d

>  <STRUCTURE_Formula>
C24H12O2

>  <STRUCTURE_MolecularWeight>
332.3509

>  <STRUCTURE_ChemicalType>
defined organic

>  <STRUCTURE_TestedForm_DefinedOrganic>
parent

>  <STRUCTURE_Shown>
tested chemical

>  <TestSubstance_ChemicalName>
C.I. vat yellow 4

>  <TestSubstance_CASRN>
128-66-5

>  <TestSubstance_Description>
single chemical compound

>  <ChemicalNote>
C.I. 59100

>  <STRUCTURE_ChemicalName_IUPAC>
dibenzo[c,pqr]tetraphene-7,14-dione

>  <STRUCTURE_SMILES>
O=C(C3=CC=C6C2=C34)C1=CC=CC=C1C4=CC=C2C(C5=CC=CC=C56)=O

>  <STRUCTURE_Parent_SMILES>
O=C(C3=CC=C6C2=C34)C1=CC=CC=C1C4=CC=C2C(C5=CC=CC=C56)=O

>  <STRUCTURE_InChI>
InChI=1/C24H12O2/c25-23-17-7-3-1-5-13(17)15-9-11-20-22-16(10-12-19(23)21(15)22)14-6-2-4-8-18(14)24(20)26/h1-12H

>  <STRUCTURE_InChIKey>
ZTWQZJLUUZHJGS-UHFFFAOYAD

>  <StudyType>
Carcinogenicity

>  <Endpoint>
TD50; Tumor Target Sites

>  <Species>
rat; mouse

>  <ActivityOutcome_CPDBAS_Mutagenicity>
inactive

>  <ActivityScore_CPDBAS_Rat>
0

>  <TD50_Rat_Note>
no positive results

>  <TargetSites_Rat_Male>
no positive results

>  <TargetSites_Rat_Female>
no positive results

>  <ActivityOutcome_CPDBAS_Rat>
inactive

>  <TD50_Mouse_mg>
10900

>  <TD50_Mouse_mmol>
32.8

>  <ActivityScore_CPDBAS_Mouse>
11

>  <TargetSites_Mouse_Male>
hematopoietic system

>  <TargetSites_Mouse_Female>
no positive results

>  <ActivityOutcome_CPDBAS_Mouse>
active

>  <ActivityOutcome_CPDBAS_SingleCellCall>
active

>  <NTP_TechnicalReport>
TR 134

>  <ChemicalPage_URL>
http://potency.berkeley.edu/chempages/C.I.%20VAT%20YELLOW%204.html

$$$$



 17 17  0  0  0  0  0  0  0  0999 V2000
    2.3090   -1.3523    0.0000 C   0  0  0  0  0  0  0  0  0  0  0  0
    3.4682   -2.0055    0.0000 C   0  0  0  0  0  0  0  0  0  0  0  0
    2.3090    0.0000    0.0000 O   0  0  0  0  0  0  0  0  0  0  0  0
    3.4682   -3.3210    0.0000 N   0  0  0  0  0  0  0  0  0  0  0  0
    4.5997   -3.9741    0.0000 C   0  0  0  0  0  0  0  0  0  0  0  0
    4.5997   -5.3264    0.0000 C   0  0  0  0  0  0  0  0  0  0  0  0
    5.7588   -3.3210    0.0000 C   0  0  0  0  0  0  0  0  0  0  0  0
    5.7588   -5.9888    0.0000 C   0  0  0  0  0  0  0  0  0  0  0  0
    6.9363   -3.9741    0.0000 C   0  0  0  0  0  0  0  0  0  0  0  0
    6.9363   -5.3264    0.0000 C   0  0  0  0  0  0  0  0  0  0  0  0
    3.4682   -5.9888    0.0000 O   0  0  0  0  0  0  0  0  0  0  0  0
    2.3090   -5.3264    0.0000 C   0  0  0  0  0  0  0  0  0  0  0  0
    1.1591   -5.9888    0.0000 C   0  0  0  0  0  0  0  0  0  0  0  0
    0.0000   -5.3264    0.0000 O   0  0  0  0  0  0  0  0  0  0  0  0
    8.0679   -5.9428    0.0000 N   0  3  0  0  0  0  0  0  0  0  0  0
    9.1994   -5.3264    0.0000 O   0  5  0  0  0  0  0  0  0  0  0  0
    8.0679   -7.2951    0.0000 O   0  0  0  0  0  0  0  0  0  0  0  0
  1  2  1  0  0  0  0
  1  3  1  0  0  0  0
  2  4  1  0  0  0  0
  4  5  1  0  0  0  0
  5  6  2  0  0  0  0
  5  7  1  0  0  0  0
  6  8  1  0  0  0  0
  6 11  1  0  0  0  0
  7  9  2  0  0  0  0
  8 10  2  0  0  0  0
  9 10  1  0  0  0  0
 10 15  1  0  0  0  0
 11 12  1  0  0  0  0
 12 13  1  0  0  0  0
 13 14  1  0  0  0  0
 15 16  1  0  0  0  0
 15 17  2  0  0  0  0
M  END
>  <DSSTox_RID>
21458

>  <DSSTox_CID>
1458

>  <DSSTox_Generic_SID>
21458

>  <DSSTox_FileID>
1525_CPDBAS_v5d

>  <STRUCTURE_Formula>
C10H14N2O5

>  <STRUCTURE_MolecularWeight>
242.2286

>  <STRUCTURE_ChemicalType>
defined organic

>  <STRUCTURE_TestedForm_DefinedOrganic>
parent

>  <STRUCTURE_Shown>
tested chemical

>  <TestSubstance_ChemicalName>
HC yellow 4

>  <TestSubstance_CASRN>
59820-43-8

>  <TestSubstance_Description>
single chemical compound

>  <STRUCTURE_ChemicalName_IUPAC>
2-({2-[(2-hydroxyethyl)amino]-5-nitrophenyl}oxy)ethanol

>  <STRUCTURE_SMILES>
OCCNC1=C(OCCO)C=C([N+]([O-])=O)C=C1

>  <STRUCTURE_Parent_SMILES>
[O-][N+](=O)c1cc(OCCO)c(cc1)NCCO

>  <STRUCTURE_InChI>
InChI=1/C10H14N2O5/c13-4-3-11-9-2-1-8(12(15)16)7-10(9)17-6-5-14/h1-2,7,11,13-14H,3-6H2

>  <STRUCTURE_InChIKey>
PNENOUKIPPERMY-UHFFFAOYAL

>  <StudyType>
Carcinogenicity

>  <Endpoint>
TD50; Tumor Target Sites

>  <Species>
rat; mouse

>  <ActivityOutcome_CPDBAS_Mutagenicity>
active

>  <ActivityScore_CPDBAS_Rat>
0

>  <TD50_Rat_Note>
no positive results

>  <TargetSites_Rat_Male>
no positive results

>  <TargetSites_Rat_Female>
no positive results

>  <ActivityOutcome_CPDBAS_Rat>
inactive

>  <ActivityScore_CPDBAS_Mouse>
0

>  <TD50_Mouse_Note>
no positive results

>  <TargetSites_Mouse_Male>
no positive results

>  <TargetSites_Mouse_Female>
no positive results

>  <ActivityOutcome_CPDBAS_Mouse>
inactive

>  <ActivityOutcome_CPDBAS_SingleCellCall>
inactive

>  <ActivityOutcome_CPDBAS_MultiCellCall>
inactive

>  <ActivityOutcome_CPDBAS_MultiCellCall_Details>
multisex inactive; multispecies inactive

>  <NTP_TechnicalReport>
TR 419

>  <ChemicalPage_URL>
http://potency.berkeley.edu/chempages/HC%20YELLOW%204.html

$$$$



 23 24  0  0  1  0  0  0  0  0999 V2000
    4.6638   -1.3375    0.0000 C   0  0  0  0  0  0  0  0  0  0  0  0
    3.4891   -2.0121    0.0000 C   0  0  0  0  0  0  0  0  0  0  0  0
    3.4891   -3.3263    0.0000 C   0  0  0  0  0  0  0  0  0  0  0  0
    2.3261   -1.3375    0.0000 C   0  0  0  0  0  0  0  0  0  0  0  0
    5.8036   -2.0121    0.0000 O   0  0  0  0  0  0  0  0  0  0  0  0
    1.1863   -2.0121    0.0000 C   0  0  0  0  0  0  0  0  0  0  0  0
    4.6638    0.0000    0.0000 O   0  0  0  0  0  0  0  0  0  0  0  0
    2.3261   -4.0009    0.0000 C   0  0  0  0  0  0  0  0  0  0  0  0
    4.6638   -4.0009    0.0000 C   0  0  0  0  0  0  0  0  0  0  0  0
    1.1863   -3.3030    0.0000 C   0  0  0  0  0  0  0  0  0  0  0  0
   11.6304   -3.9311    0.0000 O   0  0  0  0  0  0  0  0  0  0  0  0
   10.4092   -3.2914    0.0000 C   0  0  0  0  0  0  0  0  0  0  0  0
    5.8036   -3.3030    0.0000 C   0  0  0  0  0  0  0  0  0  0  0  0
    2.3261    0.0000    0.0000 O   0  0  0  0  0  0  0  0  0  0  0  0
    6.9317   -1.3375    0.0000 C   0  0  2  0  0  0  0  0  0  0  0  0
    0.0000   -3.9776    0.0000 O   0  0  0  0  0  0  0  0  0  0  0  0
    9.2810   -1.3491    0.0000 C   0  0  0  0  0  0  0  0  0  0  0  0
   10.4092   -2.0237    0.0000 C   0  0  0  0  0  0  0  0  0  0  0  0
    6.9550   -3.9776    0.0000 C   0  0  0  0  0  0  0  0  0  0  0  0
    9.2810   -3.9776    0.0000 C   0  0  0  0  0  0  0  0  0  0  0  0
    8.1180   -2.0237    0.0000 C   0  0  0  0  0  0  0  0  0  0  0  0
    6.9317   -0.1163    0.0000 C   0  0  0  0  0  0  0  0  0  0  0  0
    8.1180   -3.3030    0.0000 C   0  0  0  0  0  0  0  0  0  0  0  0
  1  2  1  0  0  0  0
  1  5  1  0  0  0  0
  1  7  2  0  0  0  0
  2  3  2  0  0  0  0
  2  4  1  0  0  0  0
  3  8  1  0  0  0  0
  3  9  1  0  0  0  0
  4  6  2  0  0  0  0
  4 14  1  0  0  0  0
  5 15  1  0  0  0  0
  6 10  1  0  0  0  0
  8 10  2  0  0  0  0
  9 13  2  0  0  0  0
 10 16  1  0  0  0  0
 11 12  2  0  0  0  0
 12 18  1  0  0  0  0
 12 20  1  0  0  0  0
 13 19  1  0  0  0  0
 15 21  1  0  0  0  0
 15 22  1  1  0  0  0
 17 21  1  0  0  0  0
 17 18  1  0  0  0  0
 19 23  1  0  0  0  0
 20 23  1  0  0  0  0
M  END
>  <DSSTox_RID>
21460

>  <DSSTox_CID>
1460

>  <DSSTox_Generic_SID>
21460

>  <DSSTox_FileID>
1527_CPDBAS_v5d

>  <STRUCTURE_Formula>
C18H22O5

>  <STRUCTURE_MolecularWeight>
318.3643

>  <STRUCTURE_ChemicalType>
defined organic

>  <STRUCTURE_TestedForm_DefinedOrganic>
parent

>  <STRUCTURE_Shown>
tested chemical

>  <TestSubstance_ChemicalName>
Zearalenone

>  <TestSubstance_CASRN>
17924-92-4

>  <TestSubstance_Description>
single chemical compound

>  <ChemicalNote>
stereochem

>  <STRUCTURE_ChemicalName_IUPAC>
(3S,11E)-14,16-dihydroxy-3-methyl-3,4,5,6,9,10-hexahydro-1H-2-benzoxacyclotetradecine-1,7(8H)-dione

>  <STRUCTURE_SMILES>
OC1=CC(=CC2=C1C(=O)O[C@H](CCCC(=O)CCC/C=C\2)C)O

>  <STRUCTURE_Parent_SMILES>
OC1=CC(=CC2=C1C(=O)O[C@H](CCCC(=O)CCC/C=C\2)C)O

>  <STRUCTURE_InChI>
InChI=1/C18H22O5/c1-12-6-5-9-14(19)8-4-2-3-7-13-10-15(20)11-16(21)17(13)18(22)23-12/h3,7,10-12,20-21H,2,4-6,8-9H2,1H3/b7-3+/t12-/m0/s1

>  <STRUCTURE_InChIKey>
MBMQEIFVQACCCH-QBODLPLBBS

>  <StudyType>
Carcinogenicity

>  <Endpoint>
TD50; Tumor Target Sites

>  <Species>
rat; mouse

>  <ActivityOutcome_CPDBAS_Mutagenicity>
inactive

>  <ActivityScore_CPDBAS_Rat>
0

>  <TD50_Rat_Note>
no positive results

>  <TargetSites_Rat_Male>
no positive results

>  <TargetSites_Rat_Female>
no positive results

>  <ActivityOutcome_CPDBAS_Rat>
inactive

>  <TD50_Mouse_mg>
39

>  <TD50_Mouse_mmol>
0.123

>  <ActivityScore_CPDBAS_Mouse>
39

>  <TD50_Mouse_Note>
TD50 is harmonic mean of more than one positive test

>  <TargetSites_Mouse_Male>
pituitary gland

>  <TargetSites_Mouse_Female>
liver; pituitary gland

>  <ActivityOutcome_CPDBAS_Mouse>
active

>  <ActivityOutcome_CPDBAS_SingleCellCall>
active

>  <ActivityOutcome_CPDBAS_MultiCellCall>
active

>  <ActivityOutcome_CPDBAS_MultiCellCall_Details>
multisite active; multisex active

>  <NTP_TechnicalReport>
TR 235

>  <ChemicalPage_URL>
http://potency.berkeley.edu/chempages/ZEARALENONE.html

$$$$



 12 12  0  0  0  0  0  0  0  0999 V2000
    3.4560   -1.3271    0.0000 C   0  0  3  0  0  0  0  0  0  0  0  0
    4.6103   -1.9906    0.0000 C   0  0  0  0  0  0  0  0  0  0  0  0
    4.6103   -3.3247    0.0000 N   0  0  0  0  0  0  0  0  0  0  0  0
    3.4560   -3.9882    0.0000 C   0  0  0  0  0  0  0  0  0  0  0  0
    2.3017   -3.3247    0.0000 C   0  0  3  0  0  0  0  0  0  0  0  0
    2.3017   -1.9906    0.0000 N   0  0  0  0  0  0  0  0  0  0  0  0
    1.1543   -1.3271    0.0000 N   0  0  0  0  0  0  0  0  0  0  0  0
    0.0000   -1.9906    0.0000 O   0  0  0  0  0  0  0  0  0  0  0  0
    1.1543   -3.9882    0.0000 C   0  0  0  0  0  0  0  0  0  0  0  0
    5.7577   -3.9882    0.0000 N   0  0  0  0  0  0  0  0  0  0  0  0
    6.9120   -3.3247    0.0000 O   0  0  0  0  0  0  0  0  0  0  0  0
    3.4560    0.0000    0.0000 C   0  0  0  0  0  0  0  0  0  0  0  0
  1  2  1  0  0  0  0
  1  6  1  0  0  0  0
  1 12  1  0  0  0  0
  2  3  1  0  0  0  0
  3  4  1  0  0  0  0
  3 10  1  0  0  0  0
  4  5  1  0  0  0  0
  5  6  1  0  0  0  0
  5  9  1  0  0  0  0
  6  7  1  0  0  0  0
  7  8  2  0  0  0  0
 10 11  2  0  0  0  0
M  END
>  <DSSTox_RID>
21468

>  <DSSTox_CID>
1468

>  <DSSTox_Generic_SID>
21468

>  <DSSTox_FileID>
1535_CPDBAS_v5d

>  <STRUCTURE_Formula>
C6H12N4O2

>  <STRUCTURE_MolecularWeight>
172.1864

>  <STRUCTURE_ChemicalType>
defined organic

>  <STRUCTURE_TestedForm_DefinedOrganic>
parent

>  <STRUCTURE_Shown>
tested chemical

>  <TestSubstance_ChemicalName>
1,4-Dinitroso-2,6-dimethylpiperazine

>  <TestSubstance_CASRN>
55380-34-2

>  <TestSubstance_Description>
single chemical compound

>  <STRUCTURE_ChemicalName_IUPAC>
2,6-dimethyl-1,4-dinitrosopiperazine

>  <STRUCTURE_SMILES>
C1(CN(CC(N1N=O)C)N=O)C

>  <STRUCTURE_Parent_SMILES>
C1(CN(CC(N1N=O)C)N=O)C

>  <STRUCTURE_InChI>
InChI=1/C6H12N4O2/c1-5-3-9(7-11)4-6(2)10(5)8-12/h5-6H,3-4H2,1-2H3

>  <STRUCTURE_InChIKey>
JIWAGFGPBKDFQN-UHFFFAOYAY

>  <StudyType>
Carcinogenicity

>  <Endpoint>
TD50; Tumor Target Sites

>  <Species>
hamster

>  <ActivityOutcome_CPDBAS_Mutagenicity>
active

>  <TD50_Hamster_mg>
3.1

>  <TD50_Hamster_mmol>
0.018

>  <ActivityScore_CPDBAS_Hamster>
68

>  <TargetSites_Hamster_Male>
stomach

>  <ActivityOutcome_CPDBAS_Hamster>
active

>  <ActivityOutcome_CPDBAS_SingleCellCall>
active

>  <Note_CPDBAS>
Hamster added v2a

>  <ChemicalPage_URL>
http://potency.berkeley.edu/chempages/1,4-DINITROSO-2,6-DIMETHYLPIPERAZINE.html

$$$$



  9  8  0  0  0  0  0  0  0  0999 V2000
    4.6053   -1.9954    0.0000 N   0  0  0  0  0  0  0  0  0  0  0  0
    3.4522   -1.3257    0.0000 C   0  0  0  0  0  0  0  0  0  0  0  0
    2.2992   -1.9954    0.0000 C   0  0  0  0  0  0  0  0  0  0  0  0
    1.1530   -1.3257    0.0000 N   0  0  0  0  0  0  0  0  0  0  0  0
    0.0000   -1.9954    0.0000 C   0  0  0  0  0  0  0  0  0  0  0  0
    1.1530    0.0000    0.0000 C   0  0  0  0  0  0  0  0  0  0  0  0
    4.6053   -3.3210    0.0000 C   0  0  0  0  0  0  0  0  0  0  0  0
    5.7514   -1.3257    0.0000 N   0  0  0  0  0  0  0  0  0  0  0  0
    6.9045   -1.9954    0.0000 O   0  0  0  0  0  0  0  0  0  0  0  0
  1  2  1  0  0  0  0
  1  7  1  0  0  0  0
  1  8  1  0  0  0  0
  2  3  1  0  0  0  0
  3  4  1  0  0  0  0
  4  5  1  0  0  0  0
  4  6  1  0  0  0  0
  8  9  2  0  0  0  0
M  END
>  <DSSTox_RID>
21469

>  <DSSTox_CID>
1469

>  <DSSTox_Generic_SID>
21469

>  <DSSTox_FileID>
1536_CPDBAS_v5d

>  <STRUCTURE_Formula>
C5H13N3O

>  <STRUCTURE_MolecularWeight>
131.1772

>  <STRUCTURE_ChemicalType>
defined organic

>  <STRUCTURE_TestedForm_DefinedOrganic>
parent

>  <STRUCTURE_Shown>
tested chemical

>  <TestSubstance_ChemicalName>
Methylnitrosamino-N,N-dimethylethylamine

>  <TestSubstance_CASRN>
23834-30-2

>  <TestSubstance_Description>
single chemical compound

>  <STRUCTURE_ChemicalName_IUPAC>
N,N,N'-trimethyl-N'-nitrosoethane-1,2-diamine

>  <STRUCTURE_SMILES>
N(CCN(C)C)(C)N=O

>  <STRUCTURE_Parent_SMILES>
N(CCN(C)C)(C)N=O

>  <STRUCTURE_InChI>
InChI=1/C5H13N3O/c1-7(2)4-5-8(3)6-9/h4-5H2,1-3H3

>  <STRUCTURE_InChIKey>
WDAHFRFQQRIZTK-UHFFFAOYAJ

>  <StudyType>
Carcinogenicity

>  <Endpoint>
TD50; Tumor Target Sites

>  <Species>
hamster

>  <TD50_Hamster_mg>
3.83

>  <TD50_Hamster_mmol>
0.0292

>  <ActivityScore_CPDBAS_Hamster>
63

>  <TD50_Hamster_Note>
TD50 is harmonic mean of more than one positive test

>  <TargetSites_Hamster_Male>
liver; nasal cavity

>  <TargetSites_Hamster_Female>
lung; nasal cavity

>  <ActivityOutcome_CPDBAS_Hamster>
active

>  <ActivityOutcome_CPDBAS_SingleCellCall>
active

>  <ActivityOutcome_CPDBAS_MultiCellCall>
active

>  <ActivityOutcome_CPDBAS_MultiCellCall_Details>
multisite active; multisex active

>  <Note_CPDBAS>
Hamster added v2a

>  <ChemicalPage_URL>
http://potency.berkeley.edu/chempages/METHYLNITROSAMINO-N,N-DIMETHYLETHYLAMINE.html

$$$$



 10 10  0  0  0  0  0  0  0  0999 V2000
    0.6656   -1.1543    0.0000 C   0  0  3  0  0  0  0  0  0  0  0  0
    1.9968   -1.1543    0.0000 C   0  0  0  0  0  0  0  0  0  0  0  0
    2.6577   -2.3040    0.0000 N   0  0  0  0  0  0  0  0  0  0  0  0
    3.9889   -2.3040    0.0000 N   0  0  0  0  0  0  0  0  0  0  0  0
    4.6545   -1.1543    0.0000 O   0  0  0  0  0  0  0  0  0  0  0  0
    1.9968   -3.4583    0.0000 C   0  0  0  0  0  0  0  0  0  0  0  0
    0.6656   -3.4583    0.0000 C   0  0  3  0  0  0  0  0  0  0  0  0
    0.0000   -2.3040    0.0000 O   0  0  0  0  0  0  0  0  0  0  0  0
    0.0000   -4.6079    0.0000 C   0  0  0  0  0  0  0  0  0  0  0  0
    0.0000    0.0000    0.0000 C   0  0  0  0  0  0  0  0  0  0  0  0
  1  2  1  0  0  0  0
  1  8  1  0  0  0  0
  1 10  1  0  0  0  0
  2  3  1  0  0  0  0
  3  4  1  0  0  0  0
  3  6  1  0  0  0  0
  4  5  2  0  0  0  0
  6  7  1  0  0  0  0
  7  8  1  0  0  0  0
  7  9  1  0  0  0  0
M  END
>  <DSSTox_RID>
21470

>  <DSSTox_CID>
1470

>  <DSSTox_Generic_SID>
21470

>  <DSSTox_FileID>
1537_CPDBAS_v5d

>  <STRUCTURE_Formula>
C6H12N2O2

>  <STRUCTURE_MolecularWeight>
144.173

>  <STRUCTURE_ChemicalType>
defined organic

>  <STRUCTURE_TestedForm_DefinedOrganic>
parent

>  <STRUCTURE_Shown>
tested chemical

>  <TestSubstance_ChemicalName>
Nitroso-2,6-dimethylmorpholine

>  <TestSubstance_CASRN>
1456-28-6

>  <TestSubstance_Description>
single chemical compound

>  <STRUCTURE_ChemicalName_IUPAC>
2,6-dimethyl-4-nitrosomorpholine

>  <STRUCTURE_SMILES>
C1(CN(N=O)CC(O1)C)C

>  <STRUCTURE_Parent_SMILES>
C1(CN(N=O)CC(O1)C)C

>  <STRUCTURE_InChI>
InChI=1/C6H12N2O2/c1-5-3-8(7-9)4-6(2)10-5/h5-6H,3-4H2,1-2H3

>  <STRUCTURE_InChIKey>
DPYMAXOKJUBANR-UHFFFAOYAS

>  <StudyType>
Carcinogenicity

>  <Endpoint>
TD50; Tumor Target Sites

>  <Species>
hamster

>  <ActivityOutcome_CPDBAS_Mutagenicity>
active

>  <TD50_Hamster_mg>
2

>  <TD50_Hamster_mmol>
0.0139

>  <ActivityScore_CPDBAS_Hamster>
71

>  <TD50_Hamster_Note>
TD50 is harmonic mean of more than one positive test

>  <TargetSites_Hamster_Male>
lung; nasal cavity; oral cavity; pancreas

>  <TargetSites_Hamster_Female>
lung; nasal cavity; oral cavity; pancreas

>  <ActivityOutcome_CPDBAS_Hamster>
active

>  <ActivityOutcome_CPDBAS_SingleCellCall>
active

>  <ActivityOutcome_CPDBAS_MultiCellCall>
active

>  <ActivityOutcome_CPDBAS_MultiCellCall_Details>
multisite active; multisex active

>  <Note_CPDBAS>
Hamster added v2a

>  <ChemicalPage_URL>
http://potency.berkeley.edu/chempages/NITROSO-2,6-DIMETHYLMORPHOLINE.html

$$$$



  9  9  0  0  0  0  0  0  0  0999 V2000
    2.1136   -0.3740    0.0000 O   0  0  0  0  0  0  0  0  0  0  0  0
    3.3772   -0.7820    0.0000 C   0  0  0  0  0  0  0  0  0  0  0  0
    3.3772   -2.1136    0.0000 N   0  0  0  0  0  0  0  0  0  0  0  0
    2.1136   -2.5272    0.0000 C   0  0  0  0  0  0  0  0  0  0  0  0
    1.3316   -1.4506    0.0000 C   0  0  3  0  0  0  0  0  0  0  0  0
    0.0000   -1.4506    0.0000 C   0  0  0  0  0  0  0  0  0  0  0  0
    4.4538   -2.8956    0.0000 N   0  0  0  0  0  0  0  0  0  0  0  0
    5.6665   -2.3572    0.0000 O   0  0  0  0  0  0  0  0  0  0  0  0
    4.4538    0.0000    0.0000 O   0  0  0  0  0  0  0  0  0  0  0  0
  1  2  1  0  0  0  0
  1  5  1  0  0  0  0
  2  3  1  0  0  0  0
  2  9  2  0  0  0  0
  3  4  1  0  0  0  0
  3  7  1  0  0  0  0
  4  5  1  0  0  0  0
  5  6  1  0  0  0  0
  7  8  2  0  0  0  0
M  END
>  <DSSTox_RID>
21471

>  <DSSTox_CID>
1471

>  <DSSTox_Generic_SID>
21471

>  <DSSTox_FileID>
1538_CPDBAS_v5d

>  <STRUCTURE_Formula>
C4H6N2O3

>  <STRUCTURE_MolecularWeight>
130.103

>  <STRUCTURE_ChemicalType>
defined organic

>  <STRUCTURE_TestedForm_DefinedOrganic>
parent

>  <STRUCTURE_Shown>
tested chemical

>  <TestSubstance_ChemicalName>
Nitroso-5-methyloxazolidone

>  <TestSubstance_CASRN>
79624-33-2

>  <TestSubstance_Description>
single chemical compound

>  <STRUCTURE_ChemicalName_IUPAC>
5-methyl-3-nitroso-1,3-oxazolidin-2-one

>  <STRUCTURE_SMILES>
O1C(N(CC1C)N=O)=O

>  <STRUCTURE_Parent_SMILES>
O1C(N(CC1C)N=O)=O

>  <STRUCTURE_InChI>
InChI=1/C4H6N2O3/c1-3-2-6(5-8)4(7)9-3/h3H,2H2,1H3

>  <STRUCTURE_InChIKey>
CWPDWGWHFVCTQM-UHFFFAOYAZ

>  <StudyType>
Carcinogenicity

>  <Endpoint>
TD50; Tumor Target Sites

>  <Species>
hamster

>  <TD50_Hamster_mg>
0.172

>  <TD50_Hamster_mmol>
0.00132

>  <ActivityScore_CPDBAS_Hamster>
95

>  <TargetSites_Hamster_Female>
stomach

>  <ActivityOutcome_CPDBAS_Hamster>
active

>  <ActivityOutcome_CPDBAS_SingleCellCall>
active

>  <Note_CPDBAS>
Hamster added v2a; Target Sites Hamster modified v3a

>  <ChemicalPage_URL>
http://potency.berkeley.edu/chempages/NITROSO-5-METHYLOXAZOLIDONE.html

$$$$



  9  8  0  0  0  0  0  0  0  0999 V2000
    0.0000   -1.1552    0.0000 C   0  0  0  0  0  0  0  0  0  0  0  0
    0.6644   -2.3044    0.0000 C   0  0  0  0  0  0  0  0  0  0  0  0
    1.9932   -2.3044    0.0000 O   0  0  0  0  0  0  0  0  0  0  0  0
    2.6576   -1.1552    0.0000 C   0  0  0  0  0  0  0  0  0  0  0  0
    1.9932    0.0000    0.0000 O   0  0  0  0  0  0  0  0  0  0  0  0
    3.9924   -1.1552    0.0000 N   0  0  0  0  0  0  0  0  0  0  0  0
    4.6568   -2.3044    0.0000 C   0  0  0  0  0  0  0  0  0  0  0  0
    4.6568    0.0000    0.0000 N   0  0  0  0  0  0  0  0  0  0  0  0
    5.9855    0.0000    0.0000 O   0  0  0  0  0  0  0  0  0  0  0  0
  1  2  1  0  0  0  0
  2  3  1  0  0  0  0
  3  4  1  0  0  0  0
  4  5  2  0  0  0  0
  4  6  1  0  0  0  0
  6  7  1  0  0  0  0
  6  8  1  0  0  0  0
  8  9  2  0  0  0  0
M  END
>  <DSSTox_RID>
21472

>  <DSSTox_CID>
1472

>  <DSSTox_Generic_SID>
21472

>  <DSSTox_FileID>
1539_CPDBAS_v5d

>  <STRUCTURE_Formula>
C4H8N2O3

>  <STRUCTURE_MolecularWeight>
132.1188

>  <STRUCTURE_ChemicalType>
defined organic

>  <STRUCTURE_TestedForm_DefinedOrganic>
parent

>  <STRUCTURE_Shown>
tested chemical

>  <TestSubstance_ChemicalName>
N-Nitroso-N-methylurethane

>  <TestSubstance_CASRN>
615-53-2

>  <TestSubstance_Description>
single chemical compound

>  <STRUCTURE_ChemicalName_IUPAC>
ethyl methyl(nitroso)carbamate

>  <STRUCTURE_SMILES>
CCOC(=O)N(C)N=O

>  <STRUCTURE_Parent_SMILES>
CCOC(=O)N(C)N=O

>  <STRUCTURE_InChI>
InChI=1/C4H8N2O3/c1-3-9-4(7)6(2)5-8/h3H2,1-2H3

>  <STRUCTURE_InChIKey>
CAUBWLYZCDDYEF-UHFFFAOYAP

>  <StudyType>
Carcinogenicity

>  <Endpoint>
TD50; Tumor Target Sites

>  <Species>
hamster

>  <ActivityOutcome_CPDBAS_Mutagenicity>
active

>  <TD50_Hamster_mg>
0.127

>  <TD50_Hamster_mmol>
0.000961

>  <ActivityScore_CPDBAS_Hamster>
99

>  <TargetSites_Hamster_BothSexes>
esophagus; stomach

>  <ActivityOutcome_CPDBAS_Hamster>
active

>  <ActivityOutcome_CPDBAS_SingleCellCall>
active

>  <ActivityOutcome_CPDBAS_MultiCellCall>
active

>  <ActivityOutcome_CPDBAS_MultiCellCall_Details>
multisite active

>  <Note_CPDBAS>
Hamster added v2a; Target Sites Hamster modified v3a

>  <ChemicalPage_URL>
http://potency.berkeley.edu/chempages/N-NITROSO-N-METHYLURETHAN.html

$$$$



  7  7  0  0  0  0  0  0  0  0999 V2000
    3.5169   -2.1419    0.0000 C   0  0  0  0  0  0  0  0  0  0  0  0
    2.3050   -1.5998    0.0000 N   0  0  0  0  0  0  0  0  0  0  0  0
    2.4416   -0.2777    0.0000 C   0  0  0  0  0  0  0  0  0  0  0  0
    3.7417    0.0000    0.0000 O   0  0  0  0  0  0  0  0  0  0  0  0
    4.4072   -1.1547    0.0000 C   0  0  0  0  0  0  0  0  0  0  0  0
    1.1503   -2.2653    0.0000 N   0  0  0  0  0  0  0  0  0  0  0  0
    0.0000   -1.5998    0.0000 O   0  0  0  0  0  0  0  0  0  0  0  0
  1  2  1  0  0  0  0
  1  5  1  0  0  0  0
  2  3  1  0  0  0  0
  2  6  1  0  0  0  0
  3  4  1  0  0  0  0
  4  5  1  0  0  0  0
  6  7  2  0  0  0  0
M  END
>  <DSSTox_RID>
21473

>  <DSSTox_CID>
1473

>  <DSSTox_Generic_SID>
21473

>  <DSSTox_FileID>
1540_CPDBAS_v5d

>  <STRUCTURE_Formula>
C3H6N2O2

>  <STRUCTURE_MolecularWeight>
102.0926

>  <STRUCTURE_ChemicalType>
defined organic

>  <STRUCTURE_TestedForm_DefinedOrganic>
parent

>  <STRUCTURE_Shown>
tested chemical

>  <TestSubstance_ChemicalName>
N-Nitroso-1,3-oxazolidine

>  <TestSubstance_CASRN>
39884-52-1

>  <TestSubstance_Description>
single chemical compound

>  <STRUCTURE_ChemicalName_IUPAC>
3-nitroso-1,3-oxazolidine

>  <STRUCTURE_SMILES>
C1N(COC1)N=O

>  <STRUCTURE_Parent_SMILES>
C1N(COC1)N=O

>  <STRUCTURE_InChI>
InChI=1/C3H6N2O2/c6-4-5-1-2-7-3-5/h1-3H2

>  <STRUCTURE_InChIKey>
RJIPASZIRLEOEO-UHFFFAOYAF

>  <StudyType>
Carcinogenicity

>  <Endpoint>
TD50; Tumor Target Sites

>  <Species>
hamster

>  <TD50_Hamster_mg>
0.798

>  <TD50_Hamster_mmol>
0.00782

>  <ActivityScore_CPDBAS_Hamster>
77

>  <TD50_Hamster_Note>
TD50 is harmonic mean of more than one positive test

>  <TargetSites_Hamster_Male>
liver

>  <TargetSites_Hamster_Female>
stomach

>  <ActivityOutcome_CPDBAS_Hamster>
active

>  <ActivityOutcome_CPDBAS_SingleCellCall>
active

>  <ActivityOutcome_CPDBAS_MultiCellCall>
active

>  <ActivityOutcome_CPDBAS_MultiCellCall_Details>
multisite active; multisex active

>  <Note_CPDBAS>
Hamster added v2a

>  <ChemicalPage_URL>
http://potency.berkeley.edu/chempages/N-NITROSO-1,3-OXAZOLIDINE.html

$$$$



 14 14  0  0  0  0  0  0  0  0999 V2000
    1.9935   -3.4527    0.0000 O   0  0  0  0  0  0  0  0  0  0  0  0
    1.3316   -2.3044    0.0000 C   0  0  0  0  0  0  0  0  0  0  0  0
    1.9935   -1.1482    0.0000 N   0  0  0  0  0  0  0  0  0  0  0  0
    3.3251   -1.1482    0.0000 C   0  0  0  0  0  0  0  0  0  0  0  0
    3.9869   -2.3044    0.0000 C   0  0  0  0  0  0  0  0  0  0  0  0
    5.3186   -2.3044    0.0000 C   0  0  0  0  0  0  0  0  0  0  0  0
    5.9804   -1.1482    0.0000 C   0  0  0  0  0  0  0  0  0  0  0  0
    7.3120   -1.1482    0.0000 C   0  0  0  0  0  0  0  0  0  0  0  0
    7.9739   -2.3044    0.0000 C   0  0  0  0  0  0  0  0  0  0  0  0
    7.3120   -3.4527    0.0000 C   0  0  0  0  0  0  0  0  0  0  0  0
    5.9804   -3.4527    0.0000 C   0  0  0  0  0  0  0  0  0  0  0  0
    1.3316    0.0000    0.0000 N   0  0  0  0  0  0  0  0  0  0  0  0
    0.0000    0.0000    0.0000 O   0  0  0  0  0  0  0  0  0  0  0  0
    0.0000   -2.3044    0.0000 N   0  0  0  0  0  0  0  0  0  0  0  0
  1  2  2  0  0  0  0
  2  3  1  0  0  0  0
  2 14  1  0  0  0  0
  3  4  1  0  0  0  0
  3 12  1  0  0  0  0
  4  5  1  0  0  0  0
  5  6  1  0  0  0  0
  6  7  2  0  0  0  0
  6 11  1  0  0  0  0
  7  8  1  0  0  0  0
  8  9  2  0  0  0  0
  9 10  1  0  0  0  0
 10 11  2  0  0  0  0
 12 13  2  0  0  0  0
M  END
>  <DSSTox_RID>
21474

>  <DSSTox_CID>
1474

>  <DSSTox_Generic_SID>
21474

>  <DSSTox_FileID>
1541_CPDBAS_v5d

>  <STRUCTURE_Formula>
C9H11N3O2

>  <STRUCTURE_MolecularWeight>
193.2048

>  <STRUCTURE_ChemicalType>
defined organic

>  <STRUCTURE_TestedForm_DefinedOrganic>
parent

>  <STRUCTURE_Shown>
tested chemical

>  <TestSubstance_ChemicalName>
N-Nitroso-2-phenylethylurea

>  <TestSubstance_CASRN>
777-79-7

>  <TestSubstance_Description>
single chemical compound

>  <STRUCTURE_ChemicalName_IUPAC>
1-nitroso-1-(2-phenylethyl)urea

>  <STRUCTURE_SMILES>
O=C(N(CCC1=CC=CC=C1)N=O)N

>  <STRUCTURE_Parent_SMILES>
O=C(N(CCC1=CC=CC=C1)N=O)N

>  <STRUCTURE_InChI>
InChI=1/C9H11N3O2/c10-9(13)12(11-14)7-6-8-4-2-1-3-5-8/h1-5H,6-7H2,(H2,10,13)/f/h10H2

>  <STRUCTURE_InChIKey>
DTJMFZHAJPQACD-GIMVELNWCH

>  <StudyType>
Carcinogenicity

>  <Endpoint>
TD50; Tumor Target Sites

>  <Species>
hamster

>  <TD50_Hamster_mg>
0.964

>  <TD50_Hamster_mmol>
0.00499

>  <ActivityScore_CPDBAS_Hamster>
82

>  <TD50_Hamster_Note>
TD50 is harmonic mean of more than one positive test

>  <TargetSites_Hamster_Male>
stomach; vascular system

>  <TargetSites_Hamster_Female>
stomach; vascular system

>  <ActivityOutcome_CPDBAS_Hamster>
active

>  <ActivityOutcome_CPDBAS_SingleCellCall>
active

>  <ActivityOutcome_CPDBAS_MultiCellCall>
active

>  <ActivityOutcome_CPDBAS_MultiCellCall_Details>
multisite active; multisex active

>  <Note_CPDBAS>
Hamster added v2a

>  <ChemicalPage_URL>
http://potency.berkeley.edu/chempages/N-NITROSO-2-PHENYLETHYLUREA.html

$$$$



  6  6  0  0  0  0  0  0  0  0999 V2000
    2.2694    0.0000    0.0000 C   0  0  0  0  0  0  0  0  0  0  0  0
    2.2694   -1.3318    0.0000 C   0  0  0  0  0  0  0  0  0  0  0  0
    0.9376   -1.3318    0.0000 N   0  0  0  0  0  0  0  0  0  0  0  0
    0.0000   -2.2694    0.0000 N   0  0  0  0  0  0  0  0  0  0  0  0
    0.3409   -3.5516    0.0000 O   0  0  0  0  0  0  0  0  0  0  0  0
    0.9376    0.0000    0.0000 C   0  0  0  0  0  0  0  0  0  0  0  0
  1  2  1  0  0  0  0
  1  6  1  0  0  0  0
  2  3  1  0  0  0  0
  3  4  1  0  0  0  0
  3  6  1  0  0  0  0
  4  5  2  0  0  0  0
M  END
>  <DSSTox_RID>
21475

>  <DSSTox_CID>
1475

>  <DSSTox_Generic_SID>
21475

>  <DSSTox_FileID>
1542_CPDBAS_v5d

>  <STRUCTURE_Formula>
C3H6N2O

>  <STRUCTURE_MolecularWeight>
86.0932

>  <STRUCTURE_ChemicalType>
defined organic

>  <STRUCTURE_TestedForm_DefinedOrganic>
parent

>  <STRUCTURE_Shown>
tested chemical

>  <TestSubstance_ChemicalName>
N-Nitrosoazetidine

>  <TestSubstance_CASRN>
15216-10-1

>  <TestSubstance_Description>
single chemical compound

>  <STRUCTURE_ChemicalName_IUPAC>
1-nitrosoazetidine

>  <STRUCTURE_SMILES>
O=NN1CCC1

>  <STRUCTURE_Parent_SMILES>
O=NN1CCC1

>  <STRUCTURE_InChI>
InChI=1/C3H6N2O/c6-4-5-2-1-3-5/h1-3H2

>  <STRUCTURE_InChIKey>
SNKTZBNDUVWOAZ-UHFFFAOYAT

>  <StudyType>
Carcinogenicity

>  <Endpoint>
TD50; Tumor Target Sites

>  <Species>
hamster

>  <ActivityOutcome_CPDBAS_Mutagenicity>
active

>  <TD50_Hamster_mg>
7.14

>  <TD50_Hamster_mmol>
0.0829

>  <ActivityScore_CPDBAS_Hamster>
52

>  <TargetSites_Hamster_Male>
liver

>  <ActivityOutcome_CPDBAS_Hamster>
active

>  <ActivityOutcome_CPDBAS_SingleCellCall>
active

>  <Note_CPDBAS>
Hamster added v2a

>  <ChemicalPage_URL>
http://potency.berkeley.edu/chempages/N-NITROSOAZETIDINE.html

$$$$



 21 23  0  0  0  0  0  0  0  0999 V2000
   11.8795   -2.1034    0.0000 C   0  0  0  0  0  0  0  0  0  0  0  0
   12.0117   -3.4263    0.0000 C   0  0  0  0  0  0  0  0  0  0  0  0
   13.2288   -3.9686    0.0000 O   0  0  0  0  0  0  0  0  0  0  0  0
   10.9402   -4.2068    0.0000 N   0  0  0  0  0  0  0  0  0  0  0  0
    9.7232   -3.6644    0.0000 C   0  0  0  0  0  0  0  0  0  0  0  0
    8.6384   -4.4449    0.0000 C   0  0  0  0  0  0  0  0  0  0  0  0
    7.4346   -3.9025    0.0000 C   0  0  0  0  0  0  0  0  0  0  0  0
    7.2891   -2.5796    0.0000 C   0  0  0  0  0  0  0  0  0  0  0  0
    5.9926   -2.3018    0.0000 C   0  0  0  0  0  0  0  0  0  0  0  0
    5.3180   -3.4527    0.0000 C   0  0  0  0  0  0  0  0  0  0  0  0
    6.2175   -4.4449    0.0000 C   0  0  0  0  0  0  0  0  0  0  0  0
    3.9951   -3.4527    0.0000 C   0  0  0  0  0  0  0  0  0  0  0  0
    3.3204   -2.3018    0.0000 C   0  0  0  0  0  0  0  0  0  0  0  0
    3.9951   -1.1509    0.0000 C   0  0  0  0  0  0  0  0  0  0  0  0
    5.3180   -1.1509    0.0000 C   0  0  0  0  0  0  0  0  0  0  0  0
    1.9975   -2.3018    0.0000 N   0  0  0  0  0  0  0  0  0  0  0  0
    1.3361   -1.1509    0.0000 C   0  0  0  0  0  0  0  0  0  0  0  0
    0.0000   -1.1509    0.0000 O   0  0  0  0  0  0  0  0  0  0  0  0
    1.9975    0.0000    0.0000 C   0  0  0  0  0  0  0  0  0  0  0  0
    8.3606   -1.7991    0.0000 C   0  0  0  0  0  0  0  0  0  0  0  0
    9.5776   -2.3415    0.0000 C   0  0  0  0  0  0  0  0  0  0  0  0
  1  2  1  0  0  0  0
  2  3  2  0  0  0  0
  2  4  1  0  0  0  0
  4  5  1  0  0  0  0
  5  6  2  0  0  0  0
  5 21  1  0  0  0  0
  6  7  1  0  0  0  0
  7  8  2  0  0  0  0
  7 11  1  0  0  0  0
  8  9  1  0  0  0  0
  8 20  1  0  0  0  0
  9 10  1  0  0  0  0
  9 15  2  0  0  0  0
 10 11  1  0  0  0  0
 10 12  2  0  0  0  0
 12 13  1  0  0  0  0
 13 14  2  0  0  0  0
 13 16  1  0  0  0  0
 14 15  1  0  0  0  0
 16 17  1  0  0  0  0
 17 18  2  0  0  0  0
 17 19  1  0  0  0  0
 20 21  2  0  0  0  0
M  END
>  <DSSTox_RID>
21479

>  <DSSTox_CID>
1479

>  <DSSTox_Generic_SID>
21479

>  <DSSTox_FileID>
1544_CPDBAS_v5d

>  <STRUCTURE_Formula>
C17H16N2O2

>  <STRUCTURE_MolecularWeight>
280.32114

>  <STRUCTURE_ChemicalType>
defined organic

>  <STRUCTURE_TestedForm_DefinedOrganic>
parent

>  <STRUCTURE_Shown>
tested chemical

>  <TestSubstance_ChemicalName>
2,7-Acetylaminofluorene

>  <TestSubstance_CASRN>
304-28-9

>  <TestSubstance_Description>
single chemical compound

>  <STRUCTURE_ChemicalName_IUPAC>
N,N'-9H-fluorene-2,7-diyldiacetamide

>  <STRUCTURE_SMILES>
O=C(NC3=CC2=C(C=C3)C1=CC=C(NC(C)=O)C=C1C2)C

>  <STRUCTURE_Parent_SMILES>
O=C(NC3=CC2=C(C=C3)C1=CC=C(NC(C)=O)C=C1C2)C

>  <STRUCTURE_InChI>
InChI=1/C17H16N2O2/c1-10(20)18-14-3-5-16-12(8-14)7-13-9-15(19-11(2)21)4-6-17(13)16/h3-6,8-9H,7H2,1-2H3,(H,18,20)(H,19,21)/f/h18-19H

>  <STRUCTURE_InChIKey>
XBZBRCVCSVLJJZ-VEWCPZSHCQ

>  <StudyType>
Carcinogenicity

>  <Endpoint>
TD50; Tumor Target Sites

>  <Species>
rhesus; cynomolgus

>  <ActivityOutcome_CPDBAS_Mutagenicity>
active

>  <TargetSites_Rhesus>
no positive results

>  <TargetSites_Cynomolgus>
no positive results

>  <TD50_Dog_Primates_Note>
no positive results for Rhesus and Cynomolgus

>  <ActivityOutcome_CPDBAS_Dog_Primates>
inactive

>  <ActivityOutcome_CPDBAS_SingleCellCall>
inactive

>  <ActivityOutcome_CPDBAS_MultiCellCall>
inactive

>  <ActivityOutcome_CPDBAS_MultiCellCall_Details>
multispecies inactive

>  <Note_CPDBAS>
Rhesus added v2a; Cynomolgus added v2a; TargetSites_Cynomolgus modified v3a

>  <ChemicalPage_URL>
http://potency.berkeley.edu/chempages/2,7-ACETYLAMINOFLUORENE.html

$$$$



 39 43  0  0  1  0  0  0  0  0999 V2000
    3.3937  -10.8268    0.0000 O   0  0  0  0  0  0  0  0  0  0  0  0
    3.8495   -9.5732    0.0000 C   0  0  0  0  0  0  0  0  0  0  0  0
    3.0011   -8.5602    0.0000 C   0  0  0  0  0  0  0  0  0  0  0  0
    1.6842   -8.7881    0.0000 O   0  0  0  0  0  0  0  0  0  0  0  0
    3.4570   -7.3065    0.0000 C   0  0  1  0  0  0  0  0  0  0  0  0
    2.1400   -7.0786    0.0000 O   0  0  0  0  0  0  0  0  0  0  0  0
    3.4570   -5.9769    0.0000 C   0  0  0  0  0  0  0  0  0  0  0  0
    4.6093   -5.3184    0.0000 C   0  0  2  0  0  0  0  0  0  0  0  0
    4.6093   -3.9888    0.0000 O   0  0  0  0  0  0  0  0  0  0  0  0
    3.4570   -3.3177    0.0000 C   0  0  1  0  0  0  0  0  0  0  0  0
    2.3047   -3.9888    0.0000 C   0  0  0  0  0  0  0  0  0  0  0  0
    1.1523   -3.3177    0.0000 C   0  0  2  0  0  0  0  0  0  0  0  0
    0.0000   -3.9888    0.0000 N   0  0  0  0  0  0  0  0  0  0  0  0
    1.1523   -1.9881    0.0000 C   0  0  2  0  0  0  0  0  0  0  0  0
    0.0000   -1.3296    0.0000 O   0  0  0  0  0  0  0  0  0  0  0  0
    2.3047   -1.3296    0.0000 C   0  0  2  0  0  0  0  0  0  0  0  0
    2.3047    0.0000    0.0000 C   0  0  0  0  0  0  0  0  0  0  0  0
    3.4570   -1.9881    0.0000 O   0  0  0  0  0  0  0  0  0  0  0  0
    5.7617   -5.9769    0.0000 C   0  0  0  0  0  0  0  0  0  0  0  0
    6.9013   -5.3184    0.0000 C   0  0  0  0  0  0  0  0  0  0  0  0
    6.9013   -3.9888    0.0000 O   0  0  0  0  0  0  0  0  0  0  0  0
    8.0536   -5.9769    0.0000 C   0  0  0  0  0  0  0  0  0  0  0  0
    9.2060   -5.3184    0.0000 C   0  0  0  0  0  0  0  0  0  0  0  0
    9.2060   -3.9888    0.0000 O   0  0  0  0  0  0  0  0  0  0  0  0
   10.3583   -5.9769    0.0000 C   0  0  0  0  0  0  0  0  0  0  0  0
   11.5106   -5.3184    0.0000 C   0  0  0  0  0  0  0  0  0  0  0  0
   11.5106   -3.9888    0.0000 O   0  0  0  0  0  0  0  0  0  0  0  0
   12.6630   -3.3177    0.0000 C   0  0  0  0  0  0  0  0  0  0  0  0
   12.6630   -5.9769    0.0000 C   0  0  0  0  0  0  0  0  0  0  0  0
   12.6630   -7.3065    0.0000 C   0  0  0  0  0  0  0  0  0  0  0  0
   11.5106   -7.9777    0.0000 C   0  0  0  0  0  0  0  0  0  0  0  0
   10.3583   -7.3065    0.0000 C   0  0  0  0  0  0  0  0  0  0  0  0
    9.2060   -7.9777    0.0000 C   0  0  0  0  0  0  0  0  0  0  0  0
    9.2060   -9.3073    0.0000 O   0  0  0  0  0  0  0  0  0  0  0  0
    8.0536   -7.3065    0.0000 C   0  0  0  0  0  0  0  0  0  0  0  0
    6.9013   -7.9777    0.0000 C   0  0  0  0  0  0  0  0  0  0  0  0
    6.9013   -9.3073    0.0000 O   0  0  0  0  0  0  0  0  0  0  0  0
    5.7617   -7.3065    0.0000 C   0  0  0  0  0  0  0  0  0  0  0  0
    4.6093   -7.9777    0.0000 C   0  0  0  0  0  0  0  0  0  0  0  0
  1  2  1  0  0  0  0
  2  3  1  0  0  0  0
  3  4  2  0  0  0  0
  5  3  1  1  0  0  0
  5  6  1  6  0  0  0
  5  7  1  0  0  0  0
  5 39  1  0  0  0  0
  7  8  1  0  0  0  0
  8  9  1  6  0  0  0
  8 19  1  0  0  0  0
 10  9  1  1  0  0  0
 10 11  1  0  0  0  0
 10 18  1  0  0  0  0
 11 12  1  0  0  0  0
 12 13  1  6  0  0  0
 12 14  1  0  0  0  0
 14 15  1  6  0  0  0
 14 16  1  0  0  0  0
 16 17  1  6  0  0  0
 16 18  1  0  0  0  0
 19 20  2  0  0  0  0
 19 38  1  0  0  0  0
 20 21  1  0  0  0  0
 20 22  1  0  0  0  0
 22 23  1  0  0  0  0
 22 35  2  0  0  0  0
 23 24  2  0  0  0  0
 23 25  1  0  0  0  0
 25 26  2  0  0  0  0
 25 32  1  0  0  0  0
 26 27  1  0  0  0  0
 26 29  1  0  0  0  0
 27 28  1  0  0  0  0
 29 30  2  0  0  0  0
 30 31  1  0  0  0  0
 31 32  2  0  0  0  0
 32 33  1  0  0  0  0
 33 34  2  0  0  0  0
 33 35  1  0  0  0  0
 35 36  1  0  0  0  0
 36 37  1  0  0  0  0
 36 38  2  0  0  0  0
 38 39  1  0  0  0  0
M  END
>  <DSSTox_RID>
21480

>  <DSSTox_CID>
1480

>  <DSSTox_Generic_SID>
21480

>  <DSSTox_FileID>
1545_CPDBAS_v5d

>  <STRUCTURE_Formula>
C27H29NO11

>  <STRUCTURE_MolecularWeight>
543.5193

>  <STRUCTURE_ChemicalType>
defined organic

>  <STRUCTURE_TestedForm_DefinedOrganic>
parent

>  <STRUCTURE_Shown>
tested chemical

>  <TestSubstance_ChemicalName>
Adriamycin

>  <TestSubstance_CASRN>
23214-92-8

>  <TestSubstance_Description>
single chemical compound

>  <ChemicalNote>
doxorubicin, stereochem

>  <STRUCTURE_ChemicalName_IUPAC>
(1S,3S)-3,5,12-trihydroxy-3-(hydroxyacetyl)-10-(methyloxy)-6,11-dioxo-1,2,3,4,6,11-hexahydrotetracen-1-yl 3-amino-2,3,6-trideoxy-alpha-L-lyxo-hexopyranoside

>  <STRUCTURE_SMILES>
OCC(=O)[C@@]4(O)C[C@H](O[C@H]1C[C@H](N)[C@H](O)[C@H](C)O1)c5c(O)c3C(=O)c2c(OC)cccc2C(=O)c3c(O)c5C4

>  <STRUCTURE_Parent_SMILES>
OCC(=O)[C@@]4(O)C[C@H](O[C@H]1C[C@H](N)[C@H](O)[C@H](C)O1)c5c(O)c3C(=O)c2c(OC)cccc2C(=O)c3c(O)c5C4

>  <STRUCTURE_InChI>
InChI=1/C27H29NO11/c1-10-22(31)13(28)6-17(38-10)39-15-8-27(36,16(30)9-29)7-12-19(15)26(35)21-20(24(12)33)23(32)11-4-3-5-14(37-2)18(11)25(21)34/h3-5,10,13,15,17,22,29,31,33,35-36H,6-9,28H2,1-2H3/t10-,13-,15-,17-,22+,27-/m0/s1

>  <STRUCTURE_InChIKey>
AOJJSUZBOXZQNB-TZSSRYMLBG

>  <StudyType>
Carcinogenicity

>  <Endpoint>
TD50; Tumor Target Sites

>  <Species>
rhesus; cynomolgus

>  <ActivityOutcome_CPDBAS_Mutagenicity>
active

>  <TargetSites_Rhesus>
no positive results

>  <TargetSites_Cynomolgus>
no positive results

>  <TD50_Dog_Primates_Note>
no positive results for Rhesus and Cynomolgus

>  <ActivityOutcome_CPDBAS_Dog_Primates>
inactive

>  <ActivityOutcome_CPDBAS_SingleCellCall>
inactive

>  <ActivityOutcome_CPDBAS_MultiCellCall>
inactive

>  <ActivityOutcome_CPDBAS_MultiCellCall_Details>
multispecies inactive

>  <Note_CPDBAS>
Rhesus added v2a; Cynomolgus added v2a

>  <ChemicalPage_URL>
http://potency.berkeley.edu/chempages/ADRIAMYCIN.html

$$$$



 25 28  0  0  1  0  0  0  0  0999 V2000
    5.7947   -3.1043    0.0000 C   0  0  1  0  0  0  0  0  0  0  0  0
    5.7947   -4.4619    0.0000 C   0  0  2  0  0  0  0  0  0  0  0  0
    4.6275   -5.1242    0.0000 C   0  0  1  0  0  0  0  0  0  0  0  0
    3.4603   -4.4619    0.0000 C   0  0  1  0  0  0  0  0  0  0  0  0
    7.0530   -2.7152    0.0000 C   0  0  1  0  0  0  0  0  0  0  0  0
    2.3179   -5.1407    0.0000 C   0  0  2  0  0  0  0  0  0  0  0  0
    2.3179   -6.4735    0.0000 C   0  0  0  0  0  0  0  0  0  0  0  0
    7.0530   -1.3576    0.0000 C   0  0  0  0  0  0  0  0  0  0  0  0
    4.6275   -2.4503    0.0000 C   0  0  0  0  0  0  0  0  0  0  0  0
    3.4603   -3.1291    0.0000 C   0  0  0  0  0  0  0  0  0  0  0  0
    7.0530   -4.8593    0.0000 C   0  0  0  0  0  0  0  0  0  0  0  0
    4.6275   -6.4735    0.0000 C   0  0  0  0  0  0  0  0  0  0  0  0
    7.0530    0.0000    0.0000 C   0  0  0  0  0  0  0  0  0  0  0  0
    7.8477   -3.7665    0.0000 C   0  0  0  0  0  0  0  0  0  0  0  0
    3.4768   -7.1357    0.0000 C   0  0  0  0  0  0  0  0  0  0  0  0
    1.1507   -7.1523    0.0000 C   0  0  0  0  0  0  0  0  0  0  0  0
    8.2781   -2.3179    0.0000 O   0  0  0  0  0  0  0  0  0  0  0  0
    5.7947   -1.7550    0.0000 C   0  0  0  0  0  0  0  0  0  0  0  0
    1.1507   -4.4785    0.0000 C   0  0  0  0  0  0  0  0  0  0  0  0
    0.0000   -6.4735    0.0000 C   0  0  0  0  0  0  0  0  0  0  0  0
    0.0000   -5.1407    0.0000 C   0  0  0  0  0  0  0  0  0  0  0  0
    5.7947   -5.7781    0.0000 H   0  0  0  0  0  0  0  0  0  0  0  0
    2.3179   -3.8411    0.0000 H   0  0  0  0  0  0  0  0  0  0  0  0
    4.6275   -3.8245    0.0000 H   0  0  0  0  0  0  0  0  0  0  0  0
    3.4603   -5.7036    0.0000 H   0  0  0  0  0  0  0  0  0  0  0  0
  1  2  1  0  0  0  0
  1  5  1  0  0  0  0
  1  9  1  0  0  0  0
  1 18  1  1  0  0  0
  2  3  1  0  0  0  0
  2 11  1  0  0  0  0
  2 22  1  6  0  0  0
  3 12  1  0  0  0  0
  3 24  1  1  0  0  0
  3  4  1  0  0  0  0
  4 10  1  0  0  0  0
  4  6  1  0  0  0  0
  4 25  1  6  0  0  0
  5  8  1  0  0  0  0
  5 14  1  0  0  0  0
  5 17  1  6  0  0  0
  6  7  1  0  0  0  0
  6 19  1  0  0  0  0
  6 23  1  1  0  0  0
  7 16  2  0  0  0  0
  7 15  1  0  0  0  0
  8 13  3  0  0  0  0
  9 10  1  0  0  0  0
 11 14  1  0  0  0  0
 12 15  1  0  0  0  0
 16 20  1  0  0  0  0
 19 21  1  0  0  0  0
 20 21  1  0  0  0  0
M  END
>  <DSSTox_RID>
21478

>  <DSSTox_CID>
1478

>  <DSSTox_Generic_SID>
21478

>  <DSSTox_FileID>
1547_CPDBAS_v5d

>  <STRUCTURE_Formula>
C20H28O

>  <STRUCTURE_MolecularWeight>
284.4406

>  <STRUCTURE_ChemicalType>
defined organic

>  <STRUCTURE_TestedForm_DefinedOrganic>
parent

>  <STRUCTURE_Shown>
tested chemical

>  <TestSubstance_ChemicalName>
Lynestrenol

>  <TestSubstance_CASRN>
52-76-6

>  <TestSubstance_Description>
single chemical compound

>  <ChemicalNote>
stereochem

>  <STRUCTURE_ChemicalName_IUPAC>
(17alpha)-17-ethynylestr-4-en-17-ol

>  <STRUCTURE_SMILES>
C1CC=C2[C@](C1)([C@@]3([C@@](CC2)([C@]4([C@](CC3)([C@](CC4)(C#C)O)C)[H])[H])[H])[H]

>  <STRUCTURE_Parent_SMILES>
C1CC=C2[C@](C1)([C@@]3([C@@](CC2)([C@]4([C@](CC3)([C@](CC4)(C#C)O)C)[H])[H])[H])[H]

>  <STRUCTURE_InChI>
InChI=1/C20H28O/c1-3-20(21)13-11-18-17-9-8-14-6-4-5-7-15(14)16(17)10-12-19(18,20)2/h1,6,15-18,21H,4-5,7-13H2,2H3/t15-,16+,17+,18-,19-,20+/m0/s1

>  <STRUCTURE_InChIKey>
YNVGQYHLRCDXFQ-JBKQDOAHBA

>  <StudyType>
Carcinogenicity

>  <Endpoint>
TD50; Tumor Target Sites

>  <Species>
dog

>  <TD50_Dog_mg>
0.58

>  <TargetSites_Dog>
mammary gland

>  <ActivityOutcome_CPDBAS_Dog_Primates>
active

>  <ActivityOutcome_CPDBAS_SingleCellCall>
active

>  <Note_CPDBAS>
Dog added v2a

>  <ChemicalPage_URL>
http://potency.berkeley.edu/chempages/LYNESTRENOL.html

$$$$
